sad/pglib_opf_case6495_rte__sad.m
%%%%%%%%%%%%%%%%%%%%%%%%%%%%%%%%%%%%%%%%%%%%%%%%%%%%%%%%%%%%%%%%%%%%%%%%%%%
%%%%                                                                  %%%%%
%%%%    IEEE PES Power Grid Library - Optimal Power Flow - v18.06     %%%%%
%%%%          (https://github.com/power-grid-lib/pglib-opf)           %%%%%
%%%%             Benchmark Group - Small Angle Difference             %%%%%
%%%%                         07 - June - 2018                         %%%%%
%%%%                                                                  %%%%%
%%%%%%%%%%%%%%%%%%%%%%%%%%%%%%%%%%%%%%%%%%%%%%%%%%%%%%%%%%%%%%%%%%%%%%%%%%%
function mpc = pglib_opf_case6495_rte__sad
mpc.version = '2';
mpc.baseMVA = 100.0;

%% bus data
%	bus_i	type	Pd	Qd	Gs	Bs	area	Vm	Va	baseKV	zone	Vmax	Vmin
mpc.bus = [
	1	 1	 0.0	 0.0	 0.0	 0.0	 1	    0.94444	    0.00000	 45.0	 1	    1.00000	    0.88889;
	2	 1	 0.0	 0.0	 0.0	 0.0	 1	    1.00000	    0.00000	 63.0	 1	    1.06349	    0.93651;
	3	 1	 13.1	 2.6	 0.0	 0.0	 1	    1.01588	    0.00000	 63.0	 1	    1.07937	    0.95238;
	4	 1	 49.2	 3.4	 0.0	 0.0	 1	    1.01111	    0.00000	 90.0	 1	    1.08889	    0.93333;
	5	 1	 11.0	 0.0	 0.0	 0.0	 1	    1.00794	    0.00000	 63.0	 1	    1.06349	    0.95238;
	6	 1	 13.0	 4.3	 0.0	 0.0	 1	    1.00000	    0.00000	 63.0	 1	    1.07937	    0.92063;
	7	 1	 1.2	 0.7	 0.0	 0.0	 1	    1.00000	    0.00000	 63.0	 1	    1.07937	    0.92063;
	8	 1	 24.6	 13.1	 0.0	 0.0	 1	    0.98889	    0.00000	 225.0	 1	    1.08889	    0.88889;
	9	 1	 14.9	 0.0	 0.0	 0.0	 1	    1.00000	    0.00000	 63.0	 1	    1.06349	    0.93651;
	10	 1	 0.0	 0.0	 0.0	 0.0	 1	    1.00000	    0.00000	 90.0	 1	    1.07778	    0.92222;
	11	 1	 30.7	 -2.0	 0.0	 0.0	 1	    1.00000	    0.00000	 90.0	 1	    1.07778	    0.92222;
	12	 1	 0.0	 0.0	 0.0	 0.0	 1	    1.01588	    0.00000	 63.0	 1	    1.07937	    0.95238;
	13	 1	 0.0	 0.0	 0.0	 0.0	 1	    1.07788	    0.00000	 380.0	 1	    1.10263	    1.05313;
	14	 1	 52.7	 13.4	 0.0	 30.4	 1	    1.02778	    0.00000	 90.0	 1	    1.07778	    0.97778;
	15	 1	 0.0	 0.0	 0.0	 0.0	 1	    1.00000	    0.00000	 63.0	 1	    1.07937	    0.92063;
	16	 1	 12.5	 -0.6	 0.0	 0.0	 1	    1.00000	    0.00000	 63.0	 1	    1.07937	    0.92063;
	17	 1	 10.9	 0.2	 0.0	 0.0	 1	    1.02222	    0.00000	 90.0	 1	    1.06667	    0.97778;
	18	 1	 0.0	 0.0	 0.0	 0.0	 1	    0.94444	    0.00000	 45.0	 1	    1.00000	    0.88889;
	19	 1	 0.0	 0.0	 0.0	 0.0	 1	    1.00000	    0.00000	 63.0	 1	    1.06349	    0.93651;
	20	 1	 3.9	 -18.2	 0.0	 0.0	 1	    0.94444	    0.00000	 45.0	 1	    1.00000	    0.88889;
	21	 1	 6.3	 -2.5	 0.0	 0.0	 1	    1.02222	    0.00000	 90.0	 1	    1.06667	    0.97778;
	22	 1	 17.3	 0.8	 0.0	 0.0	 1	    1.01588	    0.00000	 63.0	 1	    1.07937	    0.95238;
	23	 1	 24.4	 1.4	 0.0	 0.0	 1	    1.00000	    0.00000	 63.0	 1	    1.06349	    0.93651;
	24	 1	 16.7	 -1.3	 0.0	 0.0	 1	    1.03333	    0.00000	 90.0	 1	    1.11111	    0.95556;
	25	 1	 51.1	 -4.0	 0.0	 0.0	 1	    1.02222	    0.00000	 90.0	 1	    1.10000	    0.94444;
	26	 1	 32.4	 5.0	 0.0	 0.0	 1	    1.02222	    0.00000	 90.0	 1	    1.06667	    0.97778;
	27	 1	 0.0	 0.0	 0.0	 0.0	 1	    1.04444	    0.00000	 225.0	 1	    1.08444	    1.00444;
	28	 1	 0.0	 -0.2	 0.0	 0.0	 1	    1.01588	    0.00000	 63.0	 1	    1.07937	    0.95238;
	29	 1	 75.0	 9.3	 0.0	 0.0	 1	    1.01587	    0.00000	 63.0	 1	    1.06349	    0.96825;
	30	 1	 37.6	 3.3	 0.0	 0.0	 1	    1.01111	    0.00000	 90.0	 1	    1.08889	    0.93333;
	31	 1	 0.0	 0.0	 0.0	 0.0	 1	    1.00000	    0.00000	 63.0	 1	    1.06349	    0.93651;
	32	 1	 0.0	 0.0	 0.0	 0.0	 1	    1.00334	    0.00000	 150.0	 1	    1.10667	    0.90000;
	33	 1	 0.0	 0.0	 0.0	 0.0	 1	    1.01111	    0.00000	 225.0	 1	    1.08889	    0.93333;
	34	 1	 0.0	 0.0	 0.0	 0.0	 1	    1.01111	    0.00000	 225.0	 1	    1.08889	    0.93333;
	35	 1	 0.0	 0.0	 0.0	 0.0	 1	    1.07237	    0.00000	 380.0	 1	    1.10526	    1.03947;
	36	 1	 0.0	 0.0	 0.0	 0.0	 1	    1.07237	    0.00000	 380.0	 1	    1.10526	    1.03947;
	37	 1	 2.4	 4.7	 0.0	 0.0	 1	    1.00000	    0.00000	 63.0	 1	    1.07937	    0.92063;
	38	 1	 8.0	 3.0	 0.0	 0.0	 1	    1.01587	    0.00000	 63.0	 1	    1.09524	    0.93651;
	39	 1	 40.6	 -4.9	 0.0	 0.0	 1	    1.02778	    0.00000	 90.0	 1	    1.07778	    0.97778;
	40	 1	 34.7	 5.1	 0.0	 0.0	 1	    1.02778	    0.00000	 90.0	 1	    1.07778	    0.97778;
	41	 1	 0.0	 0.0	 0.0	 0.0	 1	    1.04798	    0.00000	 225.0	 1	    1.09152	    1.00444;
	42	 1	 0.0	 0.0	 0.0	 0.0	 1	    1.04036	    0.00000	 63.0	 1	    1.12834	    0.95238;
	43	 1	 3.3	 2.7	 0.0	 0.0	 1	    1.02778	    0.00000	 90.0	 1	    1.07778	    0.97778;
	44	 1	 15.2	 1.6	 0.0	 0.0	 1	    1.00794	    0.00000	 63.0	 1	    1.06349	    0.95238;
	45	 1	 3.8	 0.8	 0.0	 0.0	 1	    1.02222	    0.00000	 90.0	 1	    1.06667	    0.97778;
	46	 1	 0.0	 0.0	 0.0	 0.0	 1	    1.00000	    0.00000	 63.0	 1	    1.06349	    0.93651;
	47	 2	 0.0	 0.0	 0.0	 0.0	 1	    1.00000	    0.00000	 63.0	 1	    1.06349	    0.93651;
	48	 1	 38.6	 3.9	 0.0	 0.0	 1	    1.00000	    0.00000	 90.0	 1	    1.07778	    0.92222;
	49	 1	 9.9	 -2.6	 0.0	 0.0	 1	    1.00000	    0.00000	 63.0	 1	    1.06349	    0.93651;
	50	 1	 0.0	 0.0	 0.0	 0.0	 1	    1.00554	    0.00000	 63.0	 1	    1.07458	    0.93651;
	51	 1	 0.0	 0.0	 0.0	 0.0	 1	    1.01111	    0.00000	 225.0	 1	    1.08889	    0.93333;
	52	 1	 8.0	 3.5	 0.0	 0.0	 1	    1.02222	    0.00000	 90.0	 1	    1.06667	    0.97778;
	53	 1	 0.1	 -1.2	 0.0	 0.0	 1	    1.00000	    0.00000	 63.0	 1	    1.04762	    0.95238;
	54	 1	 -0.6	 1.2	 0.0	 0.0	 1	    1.02222	    0.00000	 90.0	 1	    1.06667	    0.97778;
	55	 1	 49.0	 11.3	 0.0	 0.0	 1	    1.04717	    0.00000	 225.0	 1	    1.08991	    1.00444;
	56	 1	 78.6	 22.5	 0.0	 0.0	 1	    1.04666	    0.00000	 225.0	 1	    1.08889	    1.00444;
	57	 2	 0.0	 0.0	 0.0	 0.0	 1	    1.00000	    0.00000	 63.0	 1	    1.07937	    0.92063;
	58	 1	 146.7	 32.5	 0.0	 0.0	 1	    1.04710	    0.00000	 225.0	 1	    1.08975	    1.00444;
	59	 1	 5.1	 0.4	 0.0	 0.0	 1	    1.01588	    0.00000	 63.0	 1	    1.07937	    0.95238;
	60	 1	 0.0	 0.0	 0.0	 0.0	 1	    1.01588	    0.00000	 63.0	 1	    1.07937	    0.95238;
	61	 1	 41.4	 11.6	 0.0	 0.0	 1	    1.01588	    0.00000	 63.0	 1	    1.07937	    0.95238;
	62	 1	 0.0	 0.0	 0.0	 0.0	 1	    1.01588	    0.00000	 63.0	 1	    1.07937	    0.95238;
	63	 1	 15.8	 2.0	 0.0	 0.0	 1	    1.01588	    0.00000	 63.0	 1	    1.07937	    0.95238;
	64	 1	 64.3	 5.4	 0.0	 0.0	 1	    0.98889	    0.00000	 225.0	 1	    1.08889	    0.88889;
	65	 1	 12.0	 2.9	 0.0	 0.0	 1	    1.01588	    0.00000	 63.0	 1	    1.07937	    0.95238;
	66	 1	 14.4	 -6.8	 0.0	 0.0	 1	    1.00000	    0.00000	 63.0	 1	    1.06349	    0.93651;
	67	 1	 1.0	 0.0	 0.0	 0.0	 1	    1.00000	    0.00000	 63.0	 1	    1.07937	    0.92063;
	68	 1	 48.7	 3.8	 0.0	 0.0	 1	    1.00000	    0.00000	 63.0	 1	    1.06349	    0.93651;
	69	 1	 17.3	 -1.6	 0.0	 0.0	 1	    1.00794	    0.00000	 63.0	 1	    1.06349	    0.95238;
	70	 1	 11.7	 3.5	 0.0	 0.0	 1	    1.01588	    0.00000	 63.0	 1	    1.07937	    0.95238;
	71	 1	 68.8	 17.2	 0.0	 0.0	 1	    1.00000	    0.00000	 63.0	 1	    1.04762	    0.95238;
	72	 1	 0.0	 0.0	 0.0	 0.0	 1	    1.04668	    0.00000	 225.0	 1	    1.08892	    1.00444;
	73	 1	 0.0	 0.0	 0.0	 0.0	 1	    1.04668	    0.00000	 225.0	 1	    1.08892	    1.00444;
	74	 1	 53.3	 -8.7	 0.0	 0.0	 1	    0.98889	    0.00000	 225.0	 1	    1.08889	    0.88889;
	75	 1	 25.0	 1.6	 0.0	 0.0	 1	    1.02222	    0.00000	 90.0	 1	    1.06667	    0.97778;
	76	 1	 9.0	 0.7	 0.0	 0.0	 1	    1.03778	    0.00000	 225.0	 1	    1.08889	    0.98667;
	77	 1	 40.8	 -1.5	 0.0	 0.0	 1	    1.00000	    0.00000	 63.0	 1	    1.06349	    0.93651;
	78	 1	 0.0	 0.0	 0.0	 0.0	 1	    1.00000	    0.00000	 63.0	 1	    1.07937	    0.92063;
	79	 1	 0.0	 0.0	 0.0	 0.0	 1	    1.00000	    0.00000	 63.0	 1	    1.04762	    0.95238;
	80	 1	 34.6	 10.4	 0.0	 0.0	 1	    1.04666	    0.00000	 225.0	 1	    1.08889	    1.00444;
	81	 1	 34.6	 9.0	 0.0	 0.0	 1	    1.04666	    0.00000	 225.0	 1	    1.08889	    1.00444;
	82	 1	 11.6	 -0.2	 0.0	 0.0	 1	    1.00000	    0.00000	 63.0	 1	    1.06349	    0.93651;
	83	 1	 92.4	 64.5	 0.0	 0.0	 1	    1.04666	    0.00000	 225.0	 1	    1.08889	    1.00444;
	84	 1	 1.4	 -0.2	 0.0	 0.0	 1	    1.00000	    0.00000	 63.0	 1	    1.06349	    0.93651;
	85	 1	 1.8	 -2.0	 0.0	 0.0	 1	    1.00109	    0.00000	 63.0	 1	    1.06568	    0.93651;
	86	 1	 44.9	 3.7	 0.0	 0.0	 1	    1.02222	    0.00000	 90.0	 1	    1.06667	    0.97778;
	87	 1	 0.0	 0.0	 0.0	 0.0	 1	    1.01588	    0.00000	 63.0	 1	    1.07937	    0.95238;
	88	 1	 15.9	 2.0	 0.0	 0.0	 1	    1.00000	    0.00000	 63.0	 1	    1.06349	    0.93651;
	89	 1	 25.7	 0.4	 0.0	 0.0	 1	    1.02778	    0.00000	 90.0	 1	    1.07778	    0.97778;
	90	 1	 0.4	 -2.3	 0.0	 0.0	 1	    0.94444	    0.00000	 45.0	 1	    1.00000	    0.88889;
	91	 1	 0.0	 0.0	 0.0	 0.0	 1	    0.94444	    0.00000	 45.0	 1	    1.00000	    0.88889;
	92	 1	 31.6	 3.2	 0.0	 0.0	 1	    1.01587	    0.00000	 63.0	 1	    1.06349	    0.96825;
	93	 1	 2.2	 -2.2	 0.0	 0.0	 1	    0.94444	    0.00000	 45.0	 1	    1.00000	    0.88889;
	94	 1	 16.9	 -4.6	 0.0	 0.0	 1	    1.02222	    0.00000	 90.0	 1	    1.06667	    0.97778;
	95	 1	 53.2	 9.3	 0.0	 0.0	 1	    1.02222	    0.00000	 90.0	 1	    1.06667	    0.97778;
	96	 1	 1.2	 0.1	 0.0	 0.0	 1	    1.00000	    0.00000	 63.0	 1	    1.06349	    0.93651;
	97	 1	 55.0	 1.6	 0.0	 0.0	 1	    1.00000	    0.00000	 63.0	 1	    1.07937	    0.92063;
	98	 1	 7.7	 -2.1	 0.0	 0.0	 1	    1.01588	    0.00000	 63.0	 1	    1.07937	    0.95238;
	99	 1	 31.9	 5.0	 0.0	 0.0	 1	    1.01588	    0.00000	 63.0	 1	    1.07937	    0.95238;
	100	 1	 59.9	 8.9	 0.0	 0.0	 1	    1.00000	    0.00000	 63.0	 1	    1.06349	    0.93651;
	101	 1	 17.1	 0.1	 0.0	 0.0	 1	    1.00000	    0.00000	 63.0	 1	    1.06349	    0.93651;
	102	 2	 0.0	 0.0	 0.0	 0.0	 1	    1.01588	    0.00000	 63.0	 1	    1.07937	    0.95238;
	103	 1	 13.0	 -1.4	 0.0	 0.0	 1	    1.01588	    0.00000	 63.0	 1	    1.07937	    0.95238;
	104	 1	 0.0	 0.0	 0.0	 0.0	 1	    1.03778	    0.00000	 225.0	 1	    1.08889	    0.98667;
	105	 1	 37.7	 0.8	 0.0	 0.0	 1	    0.98889	    0.00000	 225.0	 1	    1.08889	    0.88889;
	106	 1	 56.3	 8.2	 0.0	 0.0	 1	    1.02222	    0.00000	 90.0	 1	    1.10000	    0.94444;
	107	 1	 107.4	 13.9	 0.0	 0.0	 1	    1.04666	    0.00000	 225.0	 1	    1.08444	    1.00889;
	108	 1	 12.7	 -3.9	 0.0	 0.0	 1	    1.02778	    0.00000	 90.0	 1	    1.07778	    0.97778;
	109	 1	 60.8	 4.1	 0.0	 0.0	 1	    1.00244	    0.00000	 63.0	 1	    1.06837	    0.93651;
	110	 1	 0.0	 0.0	 0.0	 0.0	 1	    1.01111	    0.00000	 225.0	 1	    1.08889	    0.93333;
	111	 1	 37.3	 -7.4	 0.0	 0.0	 1	    1.01587	    0.00000	 63.0	 1	    1.06349	    0.96825;
	112	 1	 0.0	 0.0	 0.0	 0.0	 1	    1.00000	    0.00000	 63.0	 1	    1.04762	    0.95238;
	113	 1	 0.0	 0.0	 0.0	 0.0	 1	    1.04666	    0.00000	 225.0	 1	    1.08889	    1.00444;
	114	 1	 12.9	 0.7	 0.0	 0.0	 1	    1.00000	    0.00000	 63.0	 1	    1.06349	    0.93651;
	115	 1	 0.0	 0.0	 0.0	 0.0	 1	    1.07895	    0.00000	 380.0	 1	    1.10526	    1.05263;
	116	 1	 0.0	 0.0	 0.0	 0.0	 1	    1.07895	    0.00000	 380.0	 1	    1.10526	    1.05263;
	117	 1	 12.8	 -2.1	 0.0	 0.0	 1	    1.01588	    0.00000	 63.0	 1	    1.07937	    0.95238;
	118	 1	 2.0	 0.8	 0.0	 0.0	 1	    1.02222	    0.00000	 90.0	 1	    1.06667	    0.97778;
	119	 1	 40.3	 3.7	 0.0	 0.0	 1	    1.00000	    0.00000	 63.0	 1	    1.06349	    0.93651;
	120	 1	 22.0	 -2.3	 0.0	 0.0	 1	    1.00000	    0.00000	 63.0	 1	    1.06349	    0.93651;
	121	 1	 22.1	 6.8	 0.0	 0.0	 1	    1.00000	    0.00000	 63.0	 1	    1.07937	    0.92063;
	122	 2	 0.0	 0.0	 0.0	 0.0	 1	    1.01588	    0.00000	 63.0	 1	    1.07937	    0.95238;
	123	 1	 11.0	 3.7	 0.0	 0.0	 1	    1.01588	    0.00000	 63.0	 1	    1.07937	    0.95238;
	124	 1	 8.9	 -2.2	 0.0	 0.0	 1	    1.02222	    0.00000	 90.0	 1	    1.06667	    0.97778;
	125	 1	 11.6	 -1.2	 0.0	 0.0	 1	    1.01588	    0.00000	 63.0	 1	    1.07937	    0.95238;
	126	 1	 0.4	 0.3	 0.0	 0.0	 1	    1.00000	    0.00000	 63.0	 1	    1.06349	    0.93651;
	127	 1	 10.7	 2.9	 0.0	 0.0	 1	    1.00000	    0.00000	 63.0	 1	    1.04762	    0.95238;
	128	 1	 13.4	 5.0	 0.0	 0.0	 1	    1.01587	    0.00000	 63.0	 1	    1.06349	    0.96825;
	129	 1	 17.0	 12.8	 0.0	 0.0	 1	    1.01587	    0.00000	 63.0	 1	    1.06349	    0.96825;
	130	 1	 0.0	 0.0	 0.0	 0.0	 1	    1.04666	    0.00000	 225.0	 1	    1.08444	    1.00889;
	131	 1	 110.7	 4.4	 0.0	 0.0	 1	    1.04666	    0.00000	 225.0	 1	    1.08444	    1.00889;
	132	 2	 9.4	 0.0	 0.0	 0.0	 1	    1.00000	    0.00000	 90.0	 1	    1.07778	    0.92222;
	133	 1	 2.5	 -0.1	 0.0	 0.0	 1	    1.00000	    0.00000	 63.0	 1	    1.04762	    0.95238;
	134	 1	 101.1	 28.6	 0.0	 0.0	 1	    1.04666	    0.00000	 225.0	 1	    1.08889	    1.00444;
	135	 1	 0.0	 0.0	 0.0	 0.0	 1	    1.04758	    0.00000	 225.0	 1	    1.09072	    1.00444;
	136	 1	 23.7	 0.6	 0.0	 0.0	 1	    1.02778	    0.00000	 90.0	 1	    1.07778	    0.97778;
	137	 2	 8.1	 -3.8	 0.0	 0.0	 1	    1.01587	    0.00000	 63.0	 1	    1.06349	    0.96825;
	138	 1	 0.0	 0.0	 0.0	 0.0	 1	    1.02333	    0.00000	 150.0	 1	    1.08000	    0.96667;
	139	 1	 15.7	 4.1	 0.0	 0.0	 1	    1.00000	    0.00000	 63.0	 1	    1.07937	    0.92063;
	140	 1	 0.0	 0.0	 0.0	 80.0	 1	    1.04445	    0.00000	 225.0	 1	    1.08889	    1.00000;
	141	 1	 0.0	 0.0	 0.0	 0.0	 1	    1.07895	    0.00000	 380.0	 1	    1.10526	    1.05263;
	142	 1	 12.5	 1.1	 0.0	 0.0	 1	    1.01588	    0.00000	 63.0	 1	    1.07937	    0.95238;
	143	 1	 0.0	 0.0	 0.0	 0.0	 1	    1.03778	    0.00000	 225.0	 1	    1.08889	    0.98667;
	144	 1	 8.9	 2.5	 0.0	 0.0	 1	    1.03333	    0.00000	 90.0	 1	    1.11111	    0.95556;
	145	 1	 24.0	 7.7	 0.0	 0.0	 1	    1.02889	    0.00000	 225.0	 1	    1.08889	    0.96889;
	146	 1	 0.0	 0.0	 0.0	 0.0	 1	    1.05263	    0.00000	 380.0	 1	    1.10526	    1.00000;
	147	 1	 28.0	 4.6	 0.0	 0.0	 1	    1.00000	    0.00000	 63.0	 1	    1.06349	    0.93651;
	148	 1	 6.6	 1.5	 0.0	 0.0	 1	    1.00000	    0.00000	 63.0	 1	    1.06349	    0.93651;
	149	 1	 15.9	 4.2	 0.0	 0.0	 1	    1.02222	    0.00000	 90.0	 1	    1.06667	    0.97778;
	150	 1	 48.4	 1.0	 0.0	 0.0	 1	    1.00000	    0.00000	 63.0	 1	    1.06349	    0.93651;
	151	 1	 0.0	 0.0	 0.0	 0.0	 1	    1.01587	    0.00000	 63.0	 1	    1.06349	    0.96825;
	152	 1	 42.6	 9.4	 0.0	 7.7	 1	    1.01587	    0.00000	 63.0	 1	    1.06349	    0.96825;
	153	 1	 26.9	 -4.9	 0.0	 0.0	 1	    1.00000	    0.00000	 63.0	 1	    1.06349	    0.93651;
	154	 1	 0.0	 0.0	 0.0	 0.0	 1	    1.01111	    0.00000	 225.0	 1	    1.08889	    0.93333;
	155	 2	 0.0	 0.0	 0.0	 0.0	 1	    1.00000	    0.00000	 63.0	 1	    1.07937	    0.92063;
	156	 1	 0.0	 0.0	 0.0	 0.0	 1	    1.01587	    0.00000	 63.0	 1	    1.06349	    0.96825;
	157	 1	 -1.4	 -2.3	 0.0	 0.0	 1	    0.94444	    0.00000	 45.0	 1	    1.00000	    0.88889;
	158	 2	 0.0	 0.0	 0.0	 0.0	 1	    0.94444	    0.00000	 45.0	 1	    1.00000	    0.88889;
	159	 1	 0.0	 0.0	 0.0	 0.0	 1	    1.00000	    0.00000	 63.0	 1	    1.06349	    0.93651;
	160	 1	 39.6	 5.7	 0.0	 0.0	 1	    0.98889	    0.00000	 225.0	 1	    1.08889	    0.88889;
	161	 1	 40.6	 10.8	 0.0	 0.0	 1	    0.98889	    0.00000	 225.0	 1	    1.08889	    0.88889;
	162	 1	 -0.1	 -1.2	 0.0	 0.0	 1	    1.02222	    0.00000	 90.0	 1	    1.06667	    0.97778;
	163	 1	 0.0	 0.0	 0.0	 0.0	 1	    1.01588	    0.00000	 63.0	 1	    1.07937	    0.95238;
	164	 1	 0.0	 0.0	 0.0	 0.0	 1	    1.01588	    0.00000	 63.0	 1	    1.07937	    0.95238;
	165	 1	 12.5	 6.7	 0.0	 0.0	 1	    0.97500	    0.00000	 20.0	 1	    1.15000	    0.80000;
	166	 1	 8.1	 -0.3	 0.0	 0.0	 1	    1.02222	    0.00000	 90.0	 1	    1.06667	    0.97778;
	167	 1	 8.3	 -2.0	 0.0	 0.0	 1	    1.02222	    0.00000	 90.0	 1	    1.06667	    0.97778;
	168	 1	 0.0	 0.0	 0.0	 0.0	 1	    1.04444	    0.00000	 225.0	 1	    1.08444	    1.00444;
	169	 1	 9.1	 -0.5	 0.0	 0.0	 1	    1.02222	    0.00000	 90.0	 1	    1.06667	    0.97778;
	170	 1	 78.8	 13.1	 0.0	 0.0	 1	    1.02778	    0.00000	 90.0	 1	    1.07778	    0.97778;
	171	 1	 26.3	 -0.9	 0.0	 30.0	 1	    1.02849	    0.00000	 90.0	 1	    1.07921	    0.97778;
	172	 1	 0.0	 0.0	 0.0	 0.0	 1	    1.04666	    0.00000	 225.0	 1	    1.08889	    1.00444;
	173	 1	 28.9	 8.2	 0.0	 0.0	 1	    1.01111	    0.00000	 90.0	 1	    1.08889	    0.93333;
	174	 1	 54.8	 9.7	 0.0	 0.0	 1	    1.03333	    0.00000	 90.0	 1	    1.11111	    0.95556;
	175	 1	 0.0	 0.0	 0.0	 0.0	 1	    1.00000	    0.00000	 63.0	 1	    1.07937	    0.92063;
	176	 2	 0.0	 0.0	 0.0	 0.0	 1	    1.00000	    0.00000	 150.0	 1	    1.10000	    0.90000;
	177	 1	 0.0	 0.0	 0.0	 0.0	 1	    1.04666	    0.00000	 225.0	 1	    1.08889	    1.00444;
	178	 1	 0.0	 0.0	 0.0	 0.0	 1	    1.04666	    0.00000	 225.0	 1	    1.08889	    1.00444;
	179	 1	 0.0	 0.0	 0.0	 0.0	 1	    1.00000	    0.00000	 63.0	 1	    1.04762	    0.95238;
	180	 1	 0.0	 0.0	 0.0	 0.0	 1	    1.04666	    0.00000	 225.0	 1	    1.08889	    1.00444;
	181	 1	 14.2	 -5.0	 0.0	 0.0	 1	    1.00000	    0.00000	 63.0	 1	    1.07937	    0.92063;
	182	 1	 15.0	 4.1	 0.0	 0.0	 1	    1.00000	    0.00000	 63.0	 1	    1.06349	    0.93651;
	183	 1	 6.2	 -0.7	 0.0	 0.0	 1	    1.01588	    0.00000	 63.0	 1	    1.07937	    0.95238;
	184	 1	 4.0	 1.4	 0.0	 0.0	 1	    1.02778	    0.00000	 90.0	 1	    1.07778	    0.97778;
	185	 1	 28.1	 2.7	 0.0	 0.0	 1	    1.01588	    0.00000	 63.0	 1	    1.07937	    0.95238;
	186	 1	 0.4	 1.3	 0.0	 0.0	 1	    1.02222	    0.00000	 90.0	 1	    1.06667	    0.97778;
	187	 2	 0.0	 0.0	 0.0	 0.0	 1	    1.00000	    0.00000	 63.0	 1	    1.07937	    0.92063;
	188	 1	 0.0	 0.0	 0.0	 0.0	 1	    1.01137	    0.00000	 63.0	 1	    1.10211	    0.92063;
	189	 1	 16.4	 2.1	 0.0	 0.0	 1	    1.00000	    0.00000	 63.0	 1	    1.07937	    0.92063;
	190	 2	 0.0	 0.0	 0.0	 0.0	 1	    0.94444	    0.00000	 45.0	 1	    1.00000	    0.88889;
	191	 1	 14.3	 -1.2	 0.0	 0.0	 1	    1.02222	    0.00000	 90.0	 1	    1.06667	    0.97778;
	192	 1	 7.2	 -2.0	 0.0	 0.0	 1	    1.00000	    0.00000	 63.0	 1	    1.07937	    0.92063;
	193	 1	 -0.3	 0.8	 0.0	 0.0	 1	    1.04666	    0.00000	 225.0	 1	    1.08889	    1.00444;
	194	 2	 0.7	 -2.2	 0.0	 0.0	 1	    1.00000	    0.00000	 63.0	 1	    1.07937	    0.92063;
	195	 1	 0.0	 0.0	 0.0	 0.0	 1	    1.01392	    0.00000	 63.0	 1	    1.07545	    0.95238;
	196	 1	 0.0	 0.0	 0.0	 0.0	 1	    1.01392	    0.00000	 63.0	 1	    1.07546	    0.95238;
	197	 1	 27.3	 0.8	 0.0	 15.0	 1	    1.00000	    0.00000	 63.0	 1	    1.07937	    0.92063;
	198	 1	 10.0	 -0.7	 0.0	 0.0	 1	    1.00000	    0.00000	 63.0	 1	    1.07937	    0.92063;
	199	 1	 11.4	 1.5	 0.0	 0.0	 1	    1.02222	    0.00000	 90.0	 1	    1.06667	    0.97778;
	200	 1	 0.0	 0.0	 0.0	 0.0	 1	    1.04445	    0.00000	 225.0	 1	    1.08889	    1.00000;
...
];

%% generator data
%	bus	Pg	Qg	Qmax	Qmin	Vg	mBase	status	Pmax	Pmin	Pc1	Pc2	Qc1min	Qc1max	Qc2min	Qc2max	ramp_agc	ramp_10	ramp_30	ramp_q	apf
mpc.gen = [
	4	 6.0	 0.0	 0.0	 0.0	 1.04	 100.0	 0	 12.0	 0.0	 0.0	 0.0	 0.0	 0.0	 0.0	 0.0	 0.0	 0.0	 0.0	 0.0	 0.0;
	4	 5.0	 0.0	 0.0	 0.0	 1.04	 100.0	 0	 10.0	 0.0	 0.0	 0.0	 0.0	 0.0	 0.0	 0.0	 0.0	 0.0	 0.0	 0.0	 0.0;
	5	 4.55	 0.0	 0.0	 0.0	 1.024	 100.0	 0	 9.1	 0.0	 0.0	 0.0	 0.0	 0.0	 0.0	 0.0	 0.0	 0.0	 0.0	 0.0	 0.0;
	11	 14.0	 0.0	 0.0	 0.0	 1.035	 100.0	 1	 28.0	 0.0	 0.0	 0.0	 0.0	 0.0	 0.0	 0.0	 0.0	 0.0	 0.0	 0.0	 0.0;
	11	 9.0	 0.0	 0.0	 0.0	 1.035	 100.0	 0	 18.0	 0.0	 0.0	 0.0	 0.0	 0.0	 0.0	 0.0	 0.0	 0.0	 0.0	 0.0	 0.0;
	17	 4.1	 0.0	 0.0	 0.0	 1.051	 100.0	 0	 8.2	 0.0	 0.0	 0.0	 0.0	 0.0	 0.0	 0.0	 0.0	 0.0	 0.0	 0.0	 0.0;
	19	 0.6	 0.0	 0.0	 0.0	 1.032	 100.0	 0	 1.2	 0.0	 0.0	 0.0	 0.0	 0.0	 0.0	 0.0	 0.0	 0.0	 0.0	 0.0	 0.0;
	22	 5.0	 0.0	 0.0	 0.0	 1.024	 100.0	 0	 10.0	 0.0	 0.0	 0.0	 0.0	 0.0	 0.0	 0.0	 0.0	 0.0	 0.0	 0.0	 0.0;
	24	 8.05	 0.0	 0.0	 0.0	 1.042	 100.0	 0	 16.1	 0.0	 0.0	 0.0	 0.0	 0.0	 0.0	 0.0	 0.0	 0.0	 0.0	 0.0	 0.0;
	24	 17.75	 0.0	 0.0	 0.0	 1.042	 100.0	 0	 35.5	 0.0	 0.0	 0.0	 0.0	 0.0	 0.0	 0.0	 0.0	 0.0	 0.0	 0.0	 0.0;
	25	 18.0	 0.0	 0.0	 0.0	 1.078	 100.0	 1	 36.0	 0.0	 0.0	 0.0	 0.0	 0.0	 0.0	 0.0	 0.0	 0.0	 0.0	 0.0	 0.0;
	25	 13.6	 0.0	 0.0	 0.0	 1.078	 100.0	 0	 27.2	 0.0	 0.0	 0.0	 0.0	 0.0	 0.0	 0.0	 0.0	 0.0	 0.0	 0.0	 0.0;
	40	 4.0	 0.0	 0.0	 0.0	 1.061	 100.0	 0	 8.0	 0.0	 0.0	 0.0	 0.0	 0.0	 0.0	 0.0	 0.0	 0.0	 0.0	 0.0	 0.0;
	47	 8.0	 -0.25	 9.5	 -10.0	 1.027	 100.0	 1	 16.0	 0.0	 0.0	 0.0	 0.0	 0.0	 0.0	 0.0	 0.0	 0.0	 0.0	 0.0	 0.0;
	47	 8.0	 -0.25	 9.5	 -10.0	 1.027	 100.0	 1	 16.0	 0.0	 0.0	 0.0	 0.0	 0.0	 0.0	 0.0	 0.0	 0.0	 0.0	 0.0	 0.0;
	48	 11.5	 0.0	 0.0	 0.0	 1.037	 100.0	 0	 23.0	 0.0	 0.0	 0.0	 0.0	 0.0	 0.0	 0.0	 0.0	 0.0	 0.0	 0.0	 0.0;
	48	 12.0	 0.0	 0.0	 0.0	 1.037	 100.0	 0	 24.0	 0.0	 0.0	 0.0	 0.0	 0.0	 0.0	 0.0	 0.0	 0.0	 0.0	 0.0	 0.0;
	57	 6.5	 0.95	 1.0	 0.9	 1.061	 100.0	 1	 13.0	 0.0	 0.0	 0.0	 0.0	 0.0	 0.0	 0.0	 0.0	 0.0	 0.0	 0.0	 0.0;
	64	 12.0	 0.0	 0.0	 0.0	 1.067	 100.0	 0	 24.0	 0.0	 0.0	 0.0	 0.0	 0.0	 0.0	 0.0	 0.0	 0.0	 0.0	 0.0	 0.0;
	64	 13.8	 0.0	 0.0	 0.0	 1.067	 100.0	 0	 27.6	 0.0	 0.0	 0.0	 0.0	 0.0	 0.0	 0.0	 0.0	 0.0	 0.0	 0.0	 0.0;
	69	 15.02	 0.0	 0.0	 0.0	 1.049	 100.0	 0	 30.04	 0.0	 0.0	 0.0	 0.0	 0.0	 0.0	 0.0	 0.0	 0.0	 0.0	 0.0	 0.0;
	70	 11.5	 0.0	 0.0	 0.0	 1.022	 100.0	 0	 23.0	 0.0	 0.0	 0.0	 0.0	 0.0	 0.0	 0.0	 0.0	 0.0	 0.0	 0.0	 0.0;
	85	 3.34	 0.0	 0.0	 0.0	 1.05	 100.0	 1	 6.68	 0.0	 0.0	 0.0	 0.0	 0.0	 0.0	 0.0	 0.0	 0.0	 0.0	 0.0	 0.0;
	86	 4.6	 0.0	 0.0	 0.0	 1.035	 100.0	 0	 9.2	 0.0	 0.0	 0.0	 0.0	 0.0	 0.0	 0.0	 0.0	 0.0	 0.0	 0.0	 0.0;
	102	 23.0	 6.0	 21.0	 -9.0	 1.03	 100.0	 1	 46.0	 0.0	 0.0	 0.0	 0.0	 0.0	 0.0	 0.0	 0.0	 0.0	 0.0	 0.0	 0.0;
	122	 6.0	 1.5	 5.0	 -2.0	 1.038	 100.0	 1	 12.0	 0.0	 0.0	 0.0	 0.0	 0.0	 0.0	 0.0	 0.0	 0.0	 0.0	 0.0	 0.0;
	124	 4.5	 0.0	 0.0	 0.0	 1.047	 100.0	 0	 9.0	 0.0	 0.0	 0.0	 0.0	 0.0	 0.0	 0.0	 0.0	 0.0	 0.0	 0.0	 0.0;
	125	 13.0	 0.0	 0.0	 0.0	 1.034	 100.0	 1	 26.0	 0.0	 0.0	 0.0	 0.0	 0.0	 0.0	 0.0	 0.0	 0.0	 0.0	 0.0	 0.0;
	125	 6.0	 0.0	 0.0	 0.0	 1.034	 100.0	 0	 12.0	 0.0	 0.0	 0.0	 0.0	 0.0	 0.0	 0.0	 0.0	 0.0	 0.0	 0.0	 0.0;
	132	 8.5	 0.0	 3.0	 -3.0	 1.068	 100.0	 1	 17.0	 0.0	 0.0	 0.0	 0.0	 0.0	 0.0	 0.0	 0.0	 0.0	 0.0	 0.0	 0.0;
	132	 2.0	 0.0	 1.0	 -1.0	 1.068	 100.0	 0	 4.0	 0.0	 0.0	 0.0	 0.0	 0.0	 0.0	 0.0	 0.0	 0.0	 0.0	 0.0	 0.0;
	132	 7.0	 0.0	 3.0	 -3.0	 1.068	 100.0	 0	 14.0	 0.0	 0.0	 0.0	 0.0	 0.0	 0.0	 0.0	 0.0	 0.0	 0.0	 0.0	 0.0;
	132	 7.0	 0.0	 3.0	 -3.0	 1.068	 100.0	 0	 14.0	 0.0	 0.0	 0.0	 0.0	 0.0	 0.0	 0.0	 0.0	 0.0	 0.0	 0.0	 0.0;
	137	 9.0	 0.0	 0.8	 -0.8	 1.032	 100.0	 0	 18.0	 0.0	 0.0	 0.0	 0.0	 0.0	 0.0	 0.0	 0.0	 0.0	 0.0	 0.0	 0.0;
	137	 9.0	 0.0	 0.8	 -0.8	 1.032	 100.0	 1	 18.0	 0.0	 0.0	 0.0	 0.0	 0.0	 0.0	 0.0	 0.0	 0.0	 0.0	 0.0	 0.0;
	155	 2.65	 0.0	 1.76	 -1.76	 1.05	 100.0	 0	 5.3	 0.0	 0.0	 0.0	 0.0	 0.0	 0.0	 0.0	 0.0	 0.0	 0.0	 0.0	 0.0;
	158	 8.95	 -1.5	 10.0	 -13.0	 0.963	 100.0	 1	 17.9	 0.0	 0.0	 0.0	 0.0	 0.0	 0.0	 0.0	 0.0	 0.0	 0.0	 0.0	 0.0;
	158	 8.95	 -1.5	 10.0	 -13.0	 0.963	 100.0	 1	 17.9	 0.0	 0.0	 0.0	 0.0	 0.0	 0.0	 0.0	 0.0	 0.0	 0.0	 0.0	 0.0;
	176	 15.0	 3.0	 10.0	 -4.0	 1.099	 100.0	 0	 30.0	 0.0	 0.0	 0.0	 0.0	 0.0	 0.0	 0.0	 0.0	 0.0	 0.0	 0.0	 0.0;
	187	 5.5	 0.0	 8.0	 -8.0	 1.079	 100.0	 0	 11.0	 0.0	 0.0	 0.0	 0.0	 0.0	 0.0	 0.0	 0.0	 0.0	 0.0	 0.0	 0.0;
	187	 5.5	 0.0	 2.0	 -2.0	 1.079	 100.0	 0	 11.0	 0.0	 0.0	 0.0	 0.0	 0.0	 0.0	 0.0	 0.0	 0.0	 0.0	 0.0	 0.0;
	190	 15.0	 0.0	 14.0	 -14.0	 0.948	 100.0	 0	 30.0	 0.0	 0.0	 0.0	 0.0	 0.0	 0.0	 0.0	 0.0	 0.0	 0.0	 0.0	 0.0;
	192	 11.75	 0.0	 0.0	 0.0	 1.062	 100.0	 1	 23.5	 0.0	 0.0	 0.0	 0.0	 0.0	 0.0	 0.0	 0.0	 0.0	 0.0	 0.0	 0.0;
	194	 7.5	 0.95	 1.0	 0.9	 1.059	 100.0	 1	 15.0	 0.0	 0.0	 0.0	 0.0	 0.0	 0.0	 0.0	 0.0	 0.0	 0.0	 0.0	 0.0;
	194	 7.5	 0.95	 1.0	 0.9	 1.059	 100.0	 1	 15.0	 0.0	 0.0	 0.0	 0.0	 0.0	 0.0	 0.0	 0.0	 0.0	 0.0	 0.0	 0.0;
	217	 5.97	 0.0	 0.0	 0.0	 1.029	 100.0	 0	 11.94	 0.0	 0.0	 0.0	 0.0	 0.0	 0.0	 0.0	 0.0	 0.0	 0.0	 0.0	 0.0;
	224	 3.0	 1.0	 2.0	 0.0	 1.099	 100.0	 0	 6.0	 0.0	 0.0	 0.0	 0.0	 0.0	 0.0	 0.0	 0.0	 0.0	 0.0	 0.0	 0.0;
	227	 3.75	 0.0	 0.0	 0.0	 1.027	 100.0	 0	 7.5	 0.0	 0.0	 0.0	 0.0	 0.0	 0.0	 0.0	 0.0	 0.0	 0.0	 0.0	 0.0;
	236	 16.75	 0.0	 0.0	 0.0	 1.051	 100.0	 0	 33.5	 0.0	 0.0	 0.0	 0.0	 0.0	 0.0	 0.0	 0.0	 0.0	 0.0	 0.0	 0.0;
	236	 12.15	 0.0	 0.0	 0.0	 1.051	 100.0	 0	 24.3	 0.0	 0.0	 0.0	 0.0	 0.0	 0.0	 0.0	 0.0	 0.0	 0.0	 0.0	 0.0;
	238	 4.0	 0.0	 0.0	 0.0	 1.04	 100.0	 0	 8.0	 0.0	 0.0	 0.0	 0.0	 0.0	 0.0	 0.0	 0.0	 0.0	 0.0	 0.0	 0.0;
	238	 18.0	 0.0	 0.0	 0.0	 1.04	 100.0	 0	 36.0	 0.0	 0.0	 0.0	 0.0	 0.0	 0.0	 0.0	 0.0	 0.0	 0.0	 0.0	 0.0;
	246	 0.5	 1.0	 2.0	 0.0	 1.015	 100.0	 0	 1.0	 0.0	 0.0	 0.0	 0.0	 0.0	 0.0	 0.0	 0.0	 0.0	 0.0	 0.0	 0.0;
	246	 15.5	 0.0	 10.0	 -10.0	 1.015	 100.0	 0	 31.0	 0.0	 0.0	 0.0	 0.0	 0.0	 0.0	 0.0	 0.0	 0.0	 0.0	 0.0	 0.0;
	246	 15.5	 0.0	 10.0	 -10.0	 1.015	 100.0	 0	 31.0	 0.0	 0.0	 0.0	 0.0	 0.0	 0.0	 0.0	 0.0	 0.0	 0.0	 0.0	 0.0;
	246	 15.5	 0.0	 10.0	 -10.0	 1.015	 100.0	 0	 31.0	 0.0	 0.0	 0.0	 0.0	 0.0	 0.0	 0.0	 0.0	 0.0	 0.0	 0.0	 0.0;
	256	 13.0	 0.0	 10.0	 -10.0	 1.047	 100.0	 1	 26.0	 0.0	 0.0	 0.0	 0.0	 0.0	 0.0	 0.0	 0.0	 0.0	 0.0	 0.0	 0.0;
	256	 13.0	 0.0	 10.0	 -10.0	 1.047	 100.0	 1	 26.0	 0.0	 0.0	 0.0	 0.0	 0.0	 0.0	 0.0	 0.0	 0.0	 0.0	 0.0	 0.0;
	258	 15.0	 0.95	 1.0	 0.9	 1.079	 100.0	 1	 30.0	 0.0	 0.0	 0.0	 0.0	 0.0	 0.0	 0.0	 0.0	 0.0	 0.0	 0.0	 0.0;
	261	 4.0	 0.0	 4.0	 -4.0	 1.047	 100.0	 0	 8.0	 0.0	 0.0	 0.0	 0.0	 0.0	 0.0	 0.0	 0.0	 0.0	 0.0	 0.0	 0.0;
	269	 6.3	 0.0	 0.0	 0.0	 1.009	 100.0	 0	 12.6	 0.0	 0.0	 0.0	 0.0	 0.0	 0.0	 0.0	 0.0	 0.0	 0.0	 0.0	 0.0;
	282	 5.8	 -0.05	 6.1	 -6.2	 1.015	 100.0	 0	 11.6	 0.0	 0.0	 0.0	 0.0	 0.0	 0.0	 0.0	 0.0	 0.0	 0.0	 0.0	 0.0;
	295	 12.65	 0.0	 0.0	 0.0	 1.055	 100.0	 0	 25.3	 0.0	 0.0	 0.0	 0.0	 0.0	 0.0	 0.0	 0.0	 0.0	 0.0	 0.0	 0.0;
	296	 6.0	 0.0	 0.0	 0.0	 1.02	 100.0	 1	 12.0	 0.0	 0.0	 0.0	 0.0	 0.0	 0.0	 0.0	 0.0	 0.0	 0.0	 0.0	 0.0;
	305	 7.5	 0.0	 9.0	 -9.0	 1.053	 100.0	 1	 15.0	 0.0	 0.0	 0.0	 0.0	 0.0	 0.0	 0.0	 0.0	 0.0	 0.0	 0.0	 0.0;
	312	 12.9	 0.0	 0.0	 0.0	 1.022	 100.0	 1	 25.8	 0.0	 0.0	 0.0	 0.0	 0.0	 0.0	 0.0	 0.0	 0.0	 0.0	 0.0	 0.0;
	312	 24.8	 0.0	 0.0	 0.0	 1.022	 100.0	 1	 49.6	 0.0	 0.0	 0.0	 0.0	 0.0	 0.0	 0.0	 0.0	 0.0	 0.0	 0.0	 0.0;
	317	 -3.5	 0.0	 0.0	 0.0	 1.064	 100.0	 0	 0.0	 -7.0	 0.0	 0.0	 0.0	 0.0	 0.0	 0.0	 0.0	 0.0	 0.0	 0.0	 0.0;
	317	 -3.5	 0.0	 0.0	 0.0	 1.064	 100.0	 0	 0.0	 -7.0	 0.0	 0.0	 0.0	 0.0	 0.0	 0.0	 0.0	 0.0	 0.0	 0.0	 0.0;
	319	 5.4	 0.0	 0.1	 -0.1	 1.037	 100.0	 0	 10.8	 0.0	 0.0	 0.0	 0.0	 0.0	 0.0	 0.0	 0.0	 0.0	 0.0	 0.0	 0.0;
	325	 5.5	 0.0	 4.0	 -4.0	 1.037	 100.0	 0	 11.0	 0.0	 0.0	 0.0	 0.0	 0.0	 0.0	 0.0	 0.0	 0.0	 0.0	 0.0	 0.0;
	332	 12.5	 2.0	 13.0	 -9.0	 1.034	 100.0	 0	 25.0	 0.0	 0.0	 0.0	 0.0	 0.0	 0.0	 0.0	 0.0	 0.0	 0.0	 0.0	 0.0;
	333	 12.5	 2.0	 13.0	 -9.0	 1.048	 100.0	 0	 25.0	 0.0	 0.0	 0.0	 0.0	 0.0	 0.0	 0.0	 0.0	 0.0	 0.0	 0.0	 0.0;
	336	 6.5	 -0.5	 5.0	 -6.0	 1.026	 100.0	 1	 13.0	 0.0	 0.0	 0.0	 0.0	 0.0	 0.0	 0.0	 0.0	 0.0	 0.0	 0.0	 0.0;
	338	 10.5	 0.0	 10.0	 -10.0	 1.078	 100.0	 0	 21.0	 0.0	 0.0	 0.0	 0.0	 0.0	 0.0	 0.0	 0.0	 0.0	 0.0	 0.0	 0.0;
	338	 1.0	 0.0	 0.1	 -0.1	 1.078	 100.0	 0	 2.0	 0.0	 0.0	 0.0	 0.0	 0.0	 0.0	 0.0	 0.0	 0.0	 0.0	 0.0	 0.0;
	345	 1.15	 0.0	 0.0	 0.0	 1.035	 100.0	 0	 2.3	 0.0	 0.0	 0.0	 0.0	 0.0	 0.0	 0.0	 0.0	 0.0	 0.0	 0.0	 0.0;
	345	 9.75	 0.0	 0.0	 0.0	 1.035	 100.0	 1	 19.5	 0.0	 0.0	 0.0	 0.0	 0.0	 0.0	 0.0	 0.0	 0.0	 0.0	 0.0	 0.0;
	348	 11.0	 0.0	 0.0	 0.0	 1.062	 100.0	 0	 22.0	 0.0	 0.0	 0.0	 0.0	 0.0	 0.0	 0.0	 0.0	 0.0	 0.0	 0.0	 0.0;
	357	 6.0	 0.0	 0.0	 0.0	 1.018	 100.0	 0	 12.0	 0.0	 0.0	 0.0	 0.0	 0.0	 0.0	 0.0	 0.0	 0.0	 0.0	 0.0	 0.0;
	357	 6.0	 0.0	 0.0	 0.0	 1.018	 100.0	 0	 12.0	 0.0	 0.0	 0.0	 0.0	 0.0	 0.0	 0.0	 0.0	 0.0	 0.0	 0.0	 0.0;
	364	 65.0	 16.5	 59.0	 -26.0	 1.049	 100.0	 1	 130.0	 0.0	 0.0	 0.0	 0.0	 0.0	 0.0	 0.0	 0.0	 0.0	 0.0	 0.0	 0.0;
	391	 1.35	 0.0	 0.0	 0.0	 1.043	 100.0	 0	 2.7	 0.0	 0.0	 0.0	 0.0	 0.0	 0.0	 0.0	 0.0	 0.0	 0.0	 0.0	 0.0;
	409	 9.0	 0.0	 5.0	 -5.0	 1.033	 100.0	 0	 18.0	 0.0	 0.0	 0.0	 0.0	 0.0	 0.0	 0.0	 0.0	 0.0	 0.0	 0.0	 0.0;
	411	 5.0	 0.0	 0.0	 0.0	 1.038	 100.0	 0	 10.0	 0.0	 0.0	 0.0	 0.0	 0.0	 0.0	 0.0	 0.0	 0.0	 0.0	 0.0	 0.0;
	411	 5.75	 0.0	 0.0	 0.0	 1.038	 100.0	 0	 11.5	 0.0	 0.0	 0.0	 0.0	 0.0	 0.0	 0.0	 0.0	 0.0	 0.0	 0.0	 0.0;
	431	 6.0	 0.0	 0.0	 0.0	 1.062	 100.0	 1	 12.0	 0.0	 0.0	 0.0	 0.0	 0.0	 0.0	 0.0	 0.0	 0.0	 0.0	 0.0	 0.0;
	440	 17.125	 -0.515	 10.96	 -11.99	 1.035	 100.0	 0	 34.25	 0.0	 0.0	 0.0	 0.0	 0.0	 0.0	 0.0	 0.0	 0.0	 0.0	 0.0	 0.0;
	447	 12.5	 -0.5	 8.0	 -9.0	 0.999	 100.0	 1	 25.0	 0.0	 0.0	 0.0	 0.0	 0.0	 0.0	 0.0	 0.0	 0.0	 0.0	 0.0	 0.0;
	462	 1.2	 0.0	 0.0	 0.0	 1.038	 100.0	 0	 2.4	 0.0	 0.0	 0.0	 0.0	 0.0	 0.0	 0.0	 0.0	 0.0	 0.0	 0.0	 0.0;
	462	 8.0	 0.0	 0.0	 0.0	 1.038	 100.0	 0	 16.0	 0.0	 0.0	 0.0	 0.0	 0.0	 0.0	 0.0	 0.0	 0.0	 0.0	 0.0	 0.0;
	464	 14.0	 1.5	 6.0	 -3.0	 1.168	 100.0	 1	 27.0	 1.0	 0.0	 0.0	 0.0	 0.0	 0.0	 0.0	 0.0	 0.0	 0.0	 0.0	 0.0;
	464	 14.0	 1.5	 6.0	 -3.0	 1.168	 100.0	 1	 27.0	 1.0	 0.0	 0.0	 0.0	 0.0	 0.0	 0.0	 0.0	 0.0	 0.0	 0.0	 0.0;
	466	 24.5	 4.5	 19.0	 -10.0	 1.037	 100.0	 0	 48.0	 1.0	 0.0	 0.0	 0.0	 0.0	 0.0	 0.0	 0.0	 0.0	 0.0	 0.0	 0.0;
	470	 5.0	 0.0	 6.0	 -6.0	 1.049	 100.0	 0	 10.0	 0.0	 0.0	 0.0	 0.0	 0.0	 0.0	 0.0	 0.0	 0.0	 0.0	 0.0	 0.0;
	470	 4.5	 0.0	 5.4	 -5.4	 1.049	 100.0	 0	 9.0	 0.0	 0.0	 0.0	 0.0	 0.0	 0.0	 0.0	 0.0	 0.0	 0.0	 0.0	 0.0;
	479	 13.5	 0.5	 17.0	 -16.0	 1.019	 100.0	 0	 27.0	 0.0	 0.0	 0.0	 0.0	 0.0	 0.0	 0.0	 0.0	 0.0	 0.0	 0.0	 0.0;
	479	 13.5	 0.5	 17.0	 -16.0	 1.019	 100.0	 0	 27.0	 0.0	 0.0	 0.0	 0.0	 0.0	 0.0	 0.0	 0.0	 0.0	 0.0	 0.0	 0.0;
	479	 13.5	 0.5	 17.0	 -16.0	 1.019	 100.0	 0	 27.0	 0.0	 0.0	 0.0	 0.0	 0.0	 0.0	 0.0	 0.0	 0.0	 0.0	 0.0	 0.0;
	491	 11.7	 -4.5	 8.0	 -17.0	 1.055	 100.0	 0	 23.4	 0.0	 0.0	 0.0	 0.0	 0.0	 0.0	 0.0	 0.0	 0.0	 0.0	 0.0	 0.0;
	508	 2.0	 0.0	 2.0	 -2.0	 1.029	 100.0	 0	 4.0	 0.0	 0.0	 0.0	 0.0	 0.0	 0.0	 0.0	 0.0	 0.0	 0.0	 0.0	 0.0;
	519	 5.0	 0.0	 0.0	 0.0	 1.007	 100.0	 0	 10.0	 0.0	 0.0	 0.0	 0.0	 0.0	 0.0	 0.0	 0.0	 0.0	 0.0	 0.0	 0.0;
	520	 6.0	 0.0	 0.0	 0.0	 1.042	 100.0	 0	 12.0	 0.0	 0.0	 0.0	 0.0	 0.0	 0.0	 0.0	 0.0	 0.0	 0.0	 0.0	 0.0;
	530	 4.0	 0.0	 4.8	 -4.8	 1.044	 100.0	 1	 8.0	 0.0	 0.0	 0.0	 0.0	 0.0	 0.0	 0.0	 0.0	 0.0	 0.0	 0.0	 0.0;
	530	 4.0	 0.0	 4.8	 -4.8	 1.044	 100.0	 1	 8.0	 0.0	 0.0	 0.0	 0.0	 0.0	 0.0	 0.0	 0.0	 0.0	 0.0	 0.0	 0.0;
	530	 4.0	 0.0	 4.8	 -4.8	 1.044	 100.0	 1	 8.0	 0.0	 0.0	 0.0	 0.0	 0.0	 0.0	 0.0	 0.0	 0.0	 0.0	 0.0	 0.0;
	537	 6.0	 0.0	 0.0	 0.0	 1.035	 100.0	 0	 12.0	 0.0	 0.0	 0.0	 0.0	 0.0	 0.0	 0.0	 0.0	 0.0	 0.0	 0.0	 0.0;
	537	 12.0	 0.0	 0.0	 0.0	 1.035	 100.0	 1	 24.0	 0.0	 0.0	 0.0	 0.0	 0.0	 0.0	 0.0	 0.0	 0.0	 0.0	 0.0	 0.0;
	546	 4.5	 1.95	 2.0	 1.9	 1.051	 100.0	 1	 9.0	 0.0	 0.0	 0.0	 0.0	 0.0	 0.0	 0.0	 0.0	 0.0	 0.0	 0.0	 0.0;
	548	 6.0	 1.0	 2.0	 0.0	 1.051	 100.0	 0	 12.0	 0.0	 0.0	 0.0	 0.0	 0.0	 0.0	 0.0	 0.0	 0.0	 0.0	 0.0	 0.0;
	570	 6.0	 0.0	 0.0	 0.0	 1.001	 100.0	 0	 12.0	 0.0	 0.0	 0.0	 0.0	 0.0	 0.0	 0.0	 0.0	 0.0	 0.0	 0.0	 0.0;
	570	 15.0	 0.0	 0.0	 0.0	 1.001	 100.0	 0	 30.0	 0.0	 0.0	 0.0	 0.0	 0.0	 0.0	 0.0	 0.0	 0.0	 0.0	 0.0	 0.0;
	570	 5.75	 0.0	 0.0	 0.0	 1.001	 100.0	 0	 11.5	 0.0	 0.0	 0.0	 0.0	 0.0	 0.0	 0.0	 0.0	 0.0	 0.0	 0.0	 0.0;
	583	 8.0	 1.5	 7.0	 -4.0	 1.021	 100.0	 1	 16.0	 0.0	 0.0	 0.0	 0.0	 0.0	 0.0	 0.0	 0.0	 0.0	 0.0	 0.0	 0.0;
	585	 4.5	 0.0	 0.0	 0.0	 0.995	 100.0	 0	 9.0	 0.0	 0.0	 0.0	 0.0	 0.0	 0.0	 0.0	 0.0	 0.0	 0.0	 0.0	 0.0;
	586	 4.75	 0.0	 5.7	 -5.7	 1.022	 100.0	 0	 9.5	 0.0	 0.0	 0.0	 0.0	 0.0	 0.0	 0.0	 0.0	 0.0	 0.0	 0.0	 0.0;
	589	 0.5	 0.0	 0.1	 -0.1	 1.03	 100.0	 0	 1.0	 0.0	 0.0	 0.0	 0.0	 0.0	 0.0	 0.0	 0.0	 0.0	 0.0	 0.0	 0.0;
	593	 10.5	 0.0	 10.0	 -10.0	 1.013	 100.0	 0	 21.0	 0.0	 0.0	 0.0	 0.0	 0.0	 0.0	 0.0	 0.0	 0.0	 0.0	 0.0	 0.0;
	600	 3.05	 0.0	 1.0	 -1.0	 1.03	 100.0	 0	 6.1	 0.0	 0.0	 0.0	 0.0	 0.0	 0.0	 0.0	 0.0	 0.0	 0.0	 0.0	 0.0;
	610	 22.5	 0.0	 45.0	 -45.0	 1.028	 100.0	 1	 45.0	 0.0	 0.0	 0.0	 0.0	 0.0	 0.0	 0.0	 0.0	 0.0	 0.0	 0.0	 0.0;
	610	 22.5	 0.0	 45.0	 -45.0	 1.028	 100.0	 0	 45.0	 0.0	 0.0	 0.0	 0.0	 0.0	 0.0	 0.0	 0.0	 0.0	 0.0	 0.0	 0.0;
	612	 6.0	 0.0	 0.0	 0.0	 1.024	 100.0	 0	 12.0	 0.0	 0.0	 0.0	 0.0	 0.0	 0.0	 0.0	 0.0	 0.0	 0.0	 0.0	 0.0;
	612	 6.0	 0.0	 0.0	 0.0	 1.024	 100.0	 0	 12.0	 0.0	 0.0	 0.0	 0.0	 0.0	 0.0	 0.0	 0.0	 0.0	 0.0	 0.0	 0.0;
	612	 6.0	 0.0	 0.0	 0.0	 1.024	 100.0	 0	 12.0	 0.0	 0.0	 0.0	 0.0	 0.0	 0.0	 0.0	 0.0	 0.0	 0.0	 0.0	 0.0;
	613	 17.5	 0.0	 0.0	 0.0	 1.022	 100.0	 0	 35.0	 0.0	 0.0	 0.0	 0.0	 0.0	 0.0	 0.0	 0.0	 0.0	 0.0	 0.0	 0.0;
	613	 5.75	 0.0	 0.0	 0.0	 1.022	 100.0	 0	 11.5	 0.0	 0.0	 0.0	 0.0	 0.0	 0.0	 0.0	 0.0	 0.0	 0.0	 0.0	 0.0;
	624	 0.0	 0.0	 8.3	 -8.3	 1.039	 100.0	 1	 8.3	 -8.3	 0.0	 0.0	 0.0	 0.0	 0.0	 0.0	 0.0	 0.0	 0.0	 0.0	 0.0;
	633	 3.65	 -0.35	 4.0	 -4.7	 1.039	 100.0	 0	 7.3	 0.0	 0.0	 0.0	 0.0	 0.0	 0.0	 0.0	 0.0	 0.0	 0.0	 0.0	 0.0;
	636	 7.5	 3.5	 7.0	 0.0	 1.003	 100.0	 0	 15.0	 0.0	 0.0	 0.0	 0.0	 0.0	 0.0	 0.0	 0.0	 0.0	 0.0	 0.0	 0.0;
	636	 7.5	 3.5	 7.0	 0.0	 1.003	 100.0	 1	 15.0	 0.0	 0.0	 0.0	 0.0	 0.0	 0.0	 0.0	 0.0	 0.0	 0.0	 0.0	 0.0;
	641	 119.5	 2.5	 80.0	 -75.0	 1.104	 100.0	 1	 239.0	 0.0	 0.0	 0.0	 0.0	 0.0	 0.0	 0.0	 0.0	 0.0	 0.0	 0.0	 0.0;
	652	 3.5	 3.5	 7.0	 0.0	 1.062	 100.0	 0	 7.0	 0.0	 0.0	 0.0	 0.0	 0.0	 0.0	 0.0	 0.0	 0.0	 0.0	 0.0	 0.0;
	670	 6.0	 0.0	 0.0	 0.0	 1.033	 100.0	 1	 12.0	 0.0	 0.0	 0.0	 0.0	 0.0	 0.0	 0.0	 0.0	 0.0	 0.0	 0.0	 0.0;
	670	 6.0	 0.0	 0.0	 0.0	 1.033	 100.0	 1	 12.0	 0.0	 0.0	 0.0	 0.0	 0.0	 0.0	 0.0	 0.0	 0.0	 0.0	 0.0	 0.0;
	671	 3.75	 0.0	 0.0	 0.0	 1.036	 100.0	 0	 7.5	 0.0	 0.0	 0.0	 0.0	 0.0	 0.0	 0.0	 0.0	 0.0	 0.0	 0.0	 0.0;
	671	 12.0	 0.0	 0.0	 0.0	 1.036	 100.0	 1	 24.0	 0.0	 0.0	 0.0	 0.0	 0.0	 0.0	 0.0	 0.0	 0.0	 0.0	 0.0	 0.0;
	679	 3.3	 0.0	 0.0	 0.0	 1.016	 100.0	 0	 6.6	 0.0	 0.0	 0.0	 0.0	 0.0	 0.0	 0.0	 0.0	 0.0	 0.0	 0.0	 0.0;
	680	 6.0	 0.0	 0.0	 0.0	 1.059	 100.0	 0	 12.0	 0.0	 0.0	 0.0	 0.0	 0.0	 0.0	 0.0	 0.0	 0.0	 0.0	 0.0	 0.0;
	684	 4.5	 0.5	 6.0	 -5.0	 0.966	 100.0	 1	 9.0	 0.0	 0.0	 0.0	 0.0	 0.0	 0.0	 0.0	 0.0	 0.0	 0.0	 0.0	 0.0;
	684	 4.5	 0.5	 6.0	 -5.0	 0.966	 100.0	 1	 9.0	 0.0	 0.0	 0.0	 0.0	 0.0	 0.0	 0.0	 0.0	 0.0	 0.0	 0.0	 0.0;
	684	 5.5	 1.5	 8.0	 -5.0	 0.966	 100.0	 0	 11.0	 0.0	 0.0	 0.0	 0.0	 0.0	 0.0	 0.0	 0.0	 0.0	 0.0	 0.0	 0.0;
	684	 5.5	 1.5	 8.0	 -5.0	 0.966	 100.0	 1	 11.0	 0.0	 0.0	 0.0	 0.0	 0.0	 0.0	 0.0	 0.0	 0.0	 0.0	 0.0	 0.0;
	695	 16.175	 0.0	 0.0	 0.0	 1.05	 100.0	 0	 32.35	 0.0	 0.0	 0.0	 0.0	 0.0	 0.0	 0.0	 0.0	 0.0	 0.0	 0.0	 0.0;
	695	 6.0	 0.0	 0.0	 0.0	 1.05	 100.0	 0	 12.0	 0.0	 0.0	 0.0	 0.0	 0.0	 0.0	 0.0	 0.0	 0.0	 0.0	 0.0	 0.0;
	695	 10.5	 0.0	 0.0	 0.0	 1.05	 100.0	 0	 21.0	 0.0	 0.0	 0.0	 0.0	 0.0	 0.0	 0.0	 0.0	 0.0	 0.0	 0.0	 0.0;
	699	 18.5	 -1.0	 15.0	 -17.0	 1.014	 100.0	 1	 37.0	 0.0	 0.0	 0.0	 0.0	 0.0	 0.0	 0.0	 0.0	 0.0	 0.0	 0.0	 0.0;
	699	 18.5	 -1.0	 15.0	 -17.0	 1.014	 100.0	 1	 37.0	 0.0	 0.0	 0.0	 0.0	 0.0	 0.0	 0.0	 0.0	 0.0	 0.0	 0.0	 0.0;
	698	 18.5	 0.0	 15.0	 -15.0	 1.012	 100.0	 1	 37.0	 0.0	 0.0	 0.0	 0.0	 0.0	 0.0	 0.0	 0.0	 0.0	 0.0	 0.0	 0.0;
	698	 18.5	 0.0	 15.0	 -15.0	 1.012	 100.0	 1	 37.0	 0.0	 0.0	 0.0	 0.0	 0.0	 0.0	 0.0	 0.0	 0.0	 0.0	 0.0	 0.0;
	697	 18.5	 -1.0	 15.0	 -17.0	 1.012	 100.0	 1	 37.0	 0.0	 0.0	 0.0	 0.0	 0.0	 0.0	 0.0	 0.0	 0.0	 0.0	 0.0	 0.0;
	697	 18.5	 -1.0	 15.0	 -17.0	 1.012	 100.0	 1	 37.0	 0.0	 0.0	 0.0	 0.0	 0.0	 0.0	 0.0	 0.0	 0.0	 0.0	 0.0	 0.0;
	705	 2.0	 0.0	 2.0	 -2.0	 0.96	 100.0	 0	 4.0	 0.0	 0.0	 0.0	 0.0	 0.0	 0.0	 0.0	 0.0	 0.0	 0.0	 0.0	 0.0;
	705	 2.0	 0.0	 2.5	 -2.5	 0.96	 100.0	 0	 4.0	 0.0	 0.0	 0.0	 0.0	 0.0	 0.0	 0.0	 0.0	 0.0	 0.0	 0.0	 0.0;
	705	 2.85	 0.0	 3.0	 -3.0	 0.96	 100.0	 1	 5.7	 0.0	 0.0	 0.0	 0.0	 0.0	 0.0	 0.0	 0.0	 0.0	 0.0	 0.0	 0.0;
	705	 4.25	 0.5	 6.0	 -5.0	 0.96	 100.0	 0	 8.5	 0.0	 0.0	 0.0	 0.0	 0.0	 0.0	 0.0	 0.0	 0.0	 0.0	 0.0	 0.0;
	732	 9.75	 0.0	 0.0	 0.0	 1.039	 100.0	 0	 19.5	 0.0	 0.0	 0.0	 0.0	 0.0	 0.0	 0.0	 0.0	 0.0	 0.0	 0.0	 0.0;
	733	 19.5	 0.0	 18.0	 -18.0	 1.007	 100.0	 1	 39.0	 0.0	 0.0	 0.0	 0.0	 0.0	 0.0	 0.0	 0.0	 0.0	 0.0	 0.0	 0.0;
	734	 5.75	 0.0	 0.0	 0.0	 1.006	 100.0	 0	 11.5	 0.0	 0.0	 0.0	 0.0	 0.0	 0.0	 0.0	 0.0	 0.0	 0.0	 0.0	 0.0;
	734	 16.0	 0.0	 0.0	 0.0	 1.006	 100.0	 0	 32.0	 0.0	 0.0	 0.0	 0.0	 0.0	 0.0	 0.0	 0.0	 0.0	 0.0	 0.0	 0.0;
	736	 6.0	 0.0	 0.0	 0.0	 1.049	 100.0	 0	 12.0	 0.0	 0.0	 0.0	 0.0	 0.0	 0.0	 0.0	 0.0	 0.0	 0.0	 0.0	 0.0;
	736	 16.0	 0.0	 0.0	 0.0	 1.049	 100.0	 1	 32.0	 0.0	 0.0	 0.0	 0.0	 0.0	 0.0	 0.0	 0.0	 0.0	 0.0	 0.0	 0.0;
	737	 2.5	 0.0	 0.1	 -0.1	 1.039	 100.0	 0	 5.0	 0.0	 0.0	 0.0	 0.0	 0.0	 0.0	 0.0	 0.0	 0.0	 0.0	 0.0	 0.0;
	744	 3.35	 0.26	 4.22	 -3.7	 1.019	 100.0	 0	 6.7	 0.0	 0.0	 0.0	 0.0	 0.0	 0.0	 0.0	 0.0	 0.0	 0.0	 0.0	 0.0;
	744	 2.8	 0.695	 4.39	 -3.0	 1.019	 100.0	 0	 5.6	 0.0	 0.0	 0.0	 0.0	 0.0	 0.0	 0.0	 0.0	 0.0	 0.0	 0.0	 0.0;
	745	 13.3	 0.0	 15.0	 -15.0	 1.015	 100.0	 1	 26.6	 0.0	 0.0	 0.0	 0.0	 0.0	 0.0	 0.0	 0.0	 0.0	 0.0	 0.0	 0.0;
	746	 4.0	 0.0	 2.0	 -2.0	 1.023	 100.0	 1	 7.0	 1.0	 0.0	 0.0	 0.0	 0.0	 0.0	 0.0	 0.0	 0.0	 0.0	 0.0	 0.0;
	751	 0.0	 0.0	 3.0	 -3.0	 1.015	 100.0	 0	 5.0	 -5.0	 0.0	 0.0	 0.0	 0.0	 0.0	 0.0	 0.0	 0.0	 0.0	 0.0	 0.0;
	758	 11.75	 0.0	 8.0	 -8.0	 1.06	 100.0	 0	 23.5	 0.0	 0.0	 0.0	 0.0	 0.0	 0.0	 0.0	 0.0	 0.0	 0.0	 0.0	 0.0;
	760	 3.0	 0.0	 0.0	 0.0	 1.045	 100.0	 0	 6.0	 0.0	 0.0	 0.0	 0.0	 0.0	 0.0	 0.0	 0.0	 0.0	 0.0	 0.0	 0.0;
	761	 3.0	 0.0	 0.0	 0.0	 1.043	 100.0	 0	 6.0	 0.0	 0.0	 0.0	 0.0	 0.0	 0.0	 0.0	 0.0	 0.0	 0.0	 0.0	 0.0;
	760	 18.75	 0.79	 10.0	 -8.42	 1.045	 100.0	 1	 37.5	 0.0	 0.0	 0.0	 0.0	 0.0	 0.0	 0.0	 0.0	 0.0	 0.0	 0.0	 0.0;
	761	 18.75	 2.0	 10.0	 -6.0	 1.043	 100.0	 1	 37.5	 0.0	 0.0	 0.0	 0.0	 0.0	 0.0	 0.0	 0.0	 0.0	 0.0	 0.0	 0.0;
	762	 0.3	 0.0	 0.06	 -0.06	 0.596	 100.0	 0	 0.6	 0.0	 0.0	 0.0	 0.0	 0.0	 0.0	 0.0	 0.0	 0.0	 0.0	 0.0	 0.0;
	762	 13.05	 0.0	 2.61	 -2.61	 0.596	 100.0	 0	 26.1	 0.0	 0.0	 0.0	 0.0	 0.0	 0.0	 0.0	 0.0	 0.0	 0.0	 0.0	 0.0;
	762	 0.8	 0.0	 0.16	 -0.16	 0.596	 100.0	 0	 1.6	 0.0	 0.0	 0.0	 0.0	 0.0	 0.0	 0.0	 0.0	 0.0	 0.0	 0.0	 0.0;
	762	 0.55	 0.0	 0.11	 -0.11	 0.596	 100.0	 0	 1.1	 0.0	 0.0	 0.0	 0.0	 0.0	 0.0	 0.0	 0.0	 0.0	 0.0	 0.0	 0.0;
	766	 18.75	 0.0	 0.0	 0.0	 1.025	 100.0	 0	 37.5	 0.0	 0.0	 0.0	 0.0	 0.0	 0.0	 0.0	 0.0	 0.0	 0.0	 0.0	 0.0;
	766	 17.0	 0.0	 0.0	 0.0	 1.025	 100.0	 0	 34.0	 0.0	 0.0	 0.0	 0.0	 0.0	 0.0	 0.0	 0.0	 0.0	 0.0	 0.0	 0.0;
	786	 4.0	 0.0	 26.0	 -26.0	 1.012	 100.0	 0	 8.0	 0.0	 0.0	 0.0	 0.0	 0.0	 0.0	 0.0	 0.0	 0.0	 0.0	 0.0	 0.0;
	786	 7.5	 0.0	 26.0	 -26.0	 1.012	 100.0	 0	 15.0	 0.0	 0.0	 0.0	 0.0	 0.0	 0.0	 0.0	 0.0	 0.0	 0.0	 0.0	 0.0;
	787	 9.5	 0.0	 26.0	 -26.0	 1.022	 100.0	 0	 19.0	 0.0	 0.0	 0.0	 0.0	 0.0	 0.0	 0.0	 0.0	 0.0	 0.0	 0.0	 0.0;
	801	 15.5	 -1.0	 15.0	 -17.0	 1.014	 100.0	 1	 31.0	 0.0	 0.0	 0.0	 0.0	 0.0	 0.0	 0.0	 0.0	 0.0	 0.0	 0.0	 0.0;
	801	 15.5	 -1.0	 15.0	 -17.0	 1.014	 100.0	 1	 31.0	 0.0	 0.0	 0.0	 0.0	 0.0	 0.0	 0.0	 0.0	 0.0	 0.0	 0.0	 0.0;
	802	 15.5	 -1.0	 15.0	 -17.0	 1.017	 100.0	 1	 31.0	 0.0	 0.0	 0.0	 0.0	 0.0	 0.0	 0.0	 0.0	 0.0	 0.0	 0.0	 0.0;
	802	 15.5	 -1.0	 15.0	 -17.0	 1.017	 100.0	 1	 31.0	 0.0	 0.0	 0.0	 0.0	 0.0	 0.0	 0.0	 0.0	 0.0	 0.0	 0.0	 0.0;
	803	 15.5	 -1.0	 15.0	 -17.0	 1.016	 100.0	 1	 31.0	 0.0	 0.0	 0.0	 0.0	 0.0	 0.0	 0.0	 0.0	 0.0	 0.0	 0.0	 0.0;
	803	 15.5	 -1.0	 15.0	 -17.0	 1.016	 100.0	 1	 31.0	 0.0	 0.0	 0.0	 0.0	 0.0	 0.0	 0.0	 0.0	 0.0	 0.0	 0.0	 0.0;
	807	 20.4	 0.0	 0.0	 0.0	 1.023	 100.0	 1	 40.8	 0.0	 0.0	 0.0	 0.0	 0.0	 0.0	 0.0	 0.0	 0.0	 0.0	 0.0	 0.0;
	815	 16.5	 -1.5	 6.0	 -9.0	 1.019	 100.0	 1	 32.0	 1.0	 0.0	 0.0	 0.0	 0.0	 0.0	 0.0	 0.0	 0.0	 0.0	 0.0	 0.0;
	815	 16.5	 -1.5	 6.0	 -9.0	 1.019	 100.0	 0	 32.0	 1.0	 0.0	 0.0	 0.0	 0.0	 0.0	 0.0	 0.0	 0.0	 0.0	 0.0	 0.0;
	816	 16.5	 -1.5	 6.0	 -9.0	 1.019	 100.0	 1	 32.0	 1.0	 0.0	 0.0	 0.0	 0.0	 0.0	 0.0	 0.0	 0.0	 0.0	 0.0	 0.0;
	816	 16.5	 -1.5	 6.0	 -9.0	 1.019	 100.0	 1	 32.0	 1.0	 0.0	 0.0	 0.0	 0.0	 0.0	 0.0	 0.0	 0.0	 0.0	 0.0	 0.0;
	816	 16.5	 -1.5	 6.0	 -9.0	 1.019	 100.0	 1	 32.0	 1.0	 0.0	 0.0	 0.0	 0.0	 0.0	 0.0	 0.0	 0.0	 0.0	 0.0	 0.0;
	816	 16.5	 -1.5	 6.0	 -9.0	 1.019	 100.0	 1	 32.0	 1.0	 0.0	 0.0	 0.0	 0.0	 0.0	 0.0	 0.0	 0.0	 0.0	 0.0	 0.0;
	826	 6.5	 0.0	 3.0	 -3.0	 1.057	 100.0	 0	 13.0	 0.0	 0.0	 0.0	 0.0	 0.0	 0.0	 0.0	 0.0	 0.0	 0.0	 0.0	 0.0;
	826	 3.5	 0.0	 3.0	 -3.0	 1.057	 100.0	 0	 7.0	 0.0	 0.0	 0.0	 0.0	 0.0	 0.0	 0.0	 0.0	 0.0	 0.0	 0.0	 0.0;
	829	 1.2	 0.0	 0.0	 0.0	 1.058	 100.0	 0	 2.4	 0.0	 0.0	 0.0	 0.0	 0.0	 0.0	 0.0	 0.0	 0.0	 0.0	 0.0	 0.0;
	830	 13.5	 0.0	 10.0	 -10.0	 1.053	 100.0	 1	 27.0	 0.0	 0.0	 0.0	 0.0	 0.0	 0.0	 0.0	 0.0	 0.0	 0.0	 0.0	 0.0;
	831	 10.0	 0.0	 10.0	 -10.0	 0.978	 100.0	 0	 20.0	 0.0	 0.0	 0.0	 0.0	 0.0	 0.0	 0.0	 0.0	 0.0	 0.0	 0.0	 0.0;
	833	 4.9	 -0.145	 3.14	 -3.43	 1.079	 100.0	 0	 9.8	 0.0	 0.0	 0.0	 0.0	 0.0	 0.0	 0.0	 0.0	 0.0	 0.0	 0.0	 0.0;
...
];

%% generator cost data
%	2	startup	shutdown	n	c(n-1)	...	c0
mpc.gencost = [
	2	 0.0	 0.0	 3	   0.000000	  62.961261	   0.000000;
	2	 0.0	 0.0	 3	   0.000000	  44.499260	   0.000000;
	2	 0.0	 0.0	 3	   0.000000	  25.337395	   0.000000;
	2	 0.0	 0.0	 3	   0.000000	 167.463642	   0.000000;
	2	 0.0	 0.0	 3	   0.000000	 111.392964	   0.000000;
	2	 0.0	 0.0	 3	   0.000000	  29.885755	   0.000000;
	2	 0.0	 0.0	 3	   0.000000	 147.114602	   0.000000;
	2	 0.0	 0.0	 3	   0.000000	  50.487876	   0.000000;
	2	 0.0	 0.0	 3	   0.000000	  47.313874	   0.000000;
	2	 0.0	 0.0	 3	   0.000000	  37.695325	   0.000000;
	2	 0.0	 0.0	 3	   0.000000	 149.706250	   0.000000;
	2	 0.0	 0.0	 3	   0.000000	  27.979964	   0.000000;
	2	 0.0	 0.0	 3	   0.000000	  40.388275	   0.000000;
	2	 0.0	 0.0	 3	   0.000000	  53.155604	   0.000000;
	2	 0.0	 0.0	 3	   0.000000	 167.468883	   0.000000;
	2	 0.0	 0.0	 3	   0.000000	  39.516031	   0.000000;
	2	 0.0	 0.0	 3	   0.000000	 109.819410	   0.000000;
	2	 0.0	 0.0	 3	   0.000000	  42.728364	   0.000000;
	2	 0.0	 0.0	 3	   0.000000	 143.124954	   0.000000;
	2	 0.0	 0.0	 3	   0.000000	  28.589444	   0.000000;
	2	 0.0	 0.0	 3	   0.000000	  46.813367	   0.000000;
	2	 0.0	 0.0	 3	   0.000000	 179.165609	   0.000000;
	2	 0.0	 0.0	 3	   0.000000	  59.146105	   0.000000;
	2	 0.0	 0.0	 3	   0.000000	  40.493070	   0.000000;
	2	 0.0	 0.0	 3	   0.000000	  68.054376	   0.000000;
	2	 0.0	 0.0	 3	   0.000000	  30.373594	   0.000000;
	2	 0.0	 0.0	 3	   0.000000	  53.027024	   0.000000;
	2	 0.0	 0.0	 3	   0.000000	  50.555584	   0.000000;
	2	 0.0	 0.0	 3	   0.000000	  63.465064	   0.000000;
	2	 0.0	 0.0	 3	   0.000000	 124.221060	   0.000000;
	2	 0.0	 0.0	 3	   0.000000	  50.531909	   0.000000;
	2	 0.0	 0.0	 3	   0.000000	  21.473041	   0.000000;
	2	 0.0	 0.0	 3	   0.000000	 126.985766	   0.000000;
	2	 0.0	 0.0	 3	   0.000000	  94.369362	   0.000000;
	2	 0.0	 0.0	 3	   0.000000	 140.429041	   0.000000;
	2	 0.0	 0.0	 3	   0.000000	  25.720651	   0.000000;
	2	 0.0	 0.0	 3	   0.000000	  28.566163	   0.000000;
	2	 0.0	 0.0	 3	   0.000000	  38.377889	   0.000000;
	2	 0.0	 0.0	 3	   0.000000	 151.918079	   0.000000;
	2	 0.0	 0.0	 3	   0.000000	  61.211742	   0.000000;
	2	 0.0	 0.0	 3	   0.000000	  39.207946	   0.000000;
	2	 0.0	 0.0	 3	   0.000000	  16.105740	   0.000000;
	2	 0.0	 0.0	 3	   0.000000	 144.598923	   0.000000;
	2	 0.0	 0.0	 3	   0.000000	  32.427697	   0.000000;
	2	 0.0	 0.0	 3	   0.000000	 133.404400	   0.000000;
	2	 0.0	 0.0	 3	   0.000000	  52.933485	   0.000000;
	2	 0.0	 0.0	 3	   0.000000	 120.175586	   0.000000;
	2	 0.0	 0.0	 3	   0.000000	  50.218575	   0.000000;
	2	 0.0	 0.0	 3	   0.000000	  40.298715	   0.000000;
	2	 0.0	 0.0	 3	   0.000000	 151.701261	   0.000000;
	2	 0.0	 0.0	 3	   0.000000	  29.351045	   0.000000;
	2	 0.0	 0.0	 3	   0.000000	  55.534042	   0.000000;
	2	 0.0	 0.0	 3	   0.000000	 127.673996	   0.000000;
	2	 0.0	 0.0	 3	   0.000000	  10.981452	   0.000000;
	2	 0.0	 0.0	 3	   0.000000	 104.864368	   0.000000;
	2	 0.0	 0.0	 3	   0.000000	  55.237325	   0.000000;
	2	 0.0	 0.0	 3	   0.000000	 117.475953	   0.000000;
	2	 0.0	 0.0	 3	   0.000000	  38.042154	   0.000000;
	2	 0.0	 0.0	 3	   0.000000	 139.314066	   0.000000;
	2	 0.0	 0.0	 3	   0.000000	  43.989433	   0.000000;
	2	 0.0	 0.0	 3	   0.000000	  35.049939	   0.000000;
	2	 0.0	 0.0	 3	   0.000000	  52.836024	   0.000000;
	2	 0.0	 0.0	 3	   0.000000	 121.385418	   0.000000;
	2	 0.0	 0.0	 3	   0.000000	  51.491448	   0.000000;
	2	 0.0	 0.0	 3	   0.000000	 122.345063	   0.000000;
	2	 0.0	 0.0	 3	   0.000000	  34.419496	   0.000000;
	2	 0.0	 0.0	 3	   0.000000	 175.711882	   0.000000;
	2	 0.0	 0.0	 3	   0.000000	   0.000000	   0.000000;
	2	 0.0	 0.0	 3	   0.000000	   0.000000	   0.000000;
	2	 0.0	 0.0	 3	   0.000000	  49.436187	   0.000000;
	2	 0.0	 0.0	 3	   0.000000	  62.372077	   0.000000;
	2	 0.0	 0.0	 3	   0.000000	  50.215106	   0.000000;
	2	 0.0	 0.0	 3	   0.000000	 126.904103	   0.000000;
	2	 0.0	 0.0	 3	   0.000000	  30.514246	   0.000000;
	2	 0.0	 0.0	 3	   0.000000	  31.243420	   0.000000;
	2	 0.0	 0.0	 3	   0.000000	  88.378904	   0.000000;
	2	 0.0	 0.0	 3	   0.000000	 152.609752	   0.000000;
	2	 0.0	 0.0	 3	   0.000000	 117.323693	   0.000000;
	2	 0.0	 0.0	 3	   0.000000	 136.291044	   0.000000;
	2	 0.0	 0.0	 3	   0.000000	 150.914602	   0.000000;
	2	 0.0	 0.0	 3	   0.000000	  45.988643	   0.000000;
	2	 0.0	 0.0	 3	   0.000000	  41.078543	   0.000000;
	2	 0.0	 0.0	 3	   0.000000	 119.490898	   0.000000;
	2	 0.0	 0.0	 3	   0.000000	  34.327002	   0.000000;
	2	 0.0	 0.0	 3	   0.000000	  44.774154	   0.000000;
	2	 0.0	 0.0	 3	   0.000000	  41.409150	   0.000000;
	2	 0.0	 0.0	 3	   0.000000	 108.921461	   0.000000;
	2	 0.0	 0.0	 3	   0.000000	 133.540650	   0.000000;
	2	 0.0	 0.0	 3	   0.000000	  94.903828	   0.000000;
	2	 0.0	 0.0	 3	   0.000000	 101.739537	   0.000000;
	2	 0.0	 0.0	 3	   0.000000	 127.059329	   0.000000;
	2	 0.0	 0.0	 3	   0.000000	  56.140610	   0.000000;
	2	 0.0	 0.0	 3	   0.000000	 148.649070	   0.000000;
	2	 0.0	 0.0	 3	   0.000000	 138.988067	   0.000000;
	2	 0.0	 0.0	 3	   0.000000	  53.273895	   0.000000;
	2	 0.0	 0.0	 3	   0.000000	  29.931411	   0.000000;
	2	 0.0	 0.0	 3	   0.000000	 144.863108	   0.000000;
	2	 0.0	 0.0	 3	   0.000000	  34.740574	   0.000000;
	2	 0.0	 0.0	 3	   0.000000	  25.089800	   0.000000;
	2	 0.0	 0.0	 3	   0.000000	  34.157865	   0.000000;
	2	 0.0	 0.0	 3	   0.000000	  38.705077	   0.000000;
	2	 0.0	 0.0	 3	   0.000000	  30.501803	   0.000000;
	2	 0.0	 0.0	 3	   0.000000	  26.351465	   0.000000;
	2	 0.0	 0.0	 3	   0.000000	  23.725284	   0.000000;
	2	 0.0	 0.0	 3	   0.000000	  47.698434	   0.000000;
	2	 0.0	 0.0	 3	   0.000000	 136.106493	   0.000000;
	2	 0.0	 0.0	 3	   0.000000	  34.037453	   0.000000;
	2	 0.0	 0.0	 3	   0.000000	 121.665616	   0.000000;
	2	 0.0	 0.0	 3	   0.000000	  55.437267	   0.000000;
	2	 0.0	 0.0	 3	   0.000000	  35.371410	   0.000000;
	2	 0.0	 0.0	 3	   0.000000	  60.022119	   0.000000;
	2	 0.0	 0.0	 3	   0.000000	  30.135830	   0.000000;
	2	 0.0	 0.0	 3	   0.000000	  40.824354	   0.000000;
	2	 0.0	 0.0	 3	   0.000000	  39.506888	   0.000000;
	2	 0.0	 0.0	 3	   0.000000	  49.714264	   0.000000;
	2	 0.0	 0.0	 3	   0.000000	  42.967659	   0.000000;
	2	 0.0	 0.0	 3	   0.000000	 134.009995	   0.000000;
	2	 0.0	 0.0	 3	   0.000000	 132.479233	   0.000000;
	2	 0.0	 0.0	 3	   0.000000	  43.967557	   0.000000;
	2	 0.0	 0.0	 3	   0.000000	  48.951281	   0.000000;
	2	 0.0	 0.0	 3	   0.000000	  43.018540	   0.000000;
	2	 0.0	 0.0	 3	   0.000000	  11.376733	   0.000000;
	2	 0.0	 0.0	 3	   0.000000	  41.545112	   0.000000;
	2	 0.0	 0.0	 3	   0.000000	  59.094684	   0.000000;
	2	 0.0	 0.0	 3	   0.000000	 125.877240	   0.000000;
	2	 0.0	 0.0	 3	   0.000000	  32.593947	   0.000000;
	2	 0.0	 0.0	 3	   0.000000	  55.505487	   0.000000;
	2	 0.0	 0.0	 3	   0.000000	  46.398178	   0.000000;
	2	 0.0	 0.0	 3	   0.000000	 141.426723	   0.000000;
	2	 0.0	 0.0	 3	   0.000000	 113.272387	   0.000000;
	2	 0.0	 0.0	 3	   0.000000	  61.830776	   0.000000;
	2	 0.0	 0.0	 3	   0.000000	  30.362570	   0.000000;
	2	 0.0	 0.0	 3	   0.000000	  19.508443	   0.000000;
	2	 0.0	 0.0	 3	   0.000000	  20.815178	   0.000000;
	2	 0.0	 0.0	 3	   0.000000	  30.020160	   0.000000;
	2	 0.0	 0.0	 3	   0.000000	 159.471435	   0.000000;
	2	 0.0	 0.0	 3	   0.000000	  57.154275	   0.000000;
	2	 0.0	 0.0	 3	   0.000000	  20.862594	   0.000000;
	2	 0.0	 0.0	 3	   0.000000	  62.886530	   0.000000;
	2	 0.0	 0.0	 3	   0.000000	  42.677445	   0.000000;
	2	 0.0	 0.0	 3	   0.000000	 169.727524	   0.000000;
	2	 0.0	 0.0	 3	   0.000000	  24.560673	   0.000000;
	2	 0.0	 0.0	 3	   0.000000	  62.127632	   0.000000;
	2	 0.0	 0.0	 3	   0.000000	  53.699215	   0.000000;
	2	 0.0	 0.0	 3	   0.000000	  44.538746	   0.000000;
	2	 0.0	 0.0	 3	   0.000000	  45.687603	   0.000000;
	2	 0.0	 0.0	 3	   0.000000	  46.365294	   0.000000;
	2	 0.0	 0.0	 3	   0.000000	 109.663756	   0.000000;
	2	 0.0	 0.0	 3	   0.000000	 151.988914	   0.000000;
	2	 0.0	 0.0	 3	   0.000000	  46.004709	   0.000000;
	2	 0.0	 0.0	 3	   0.000000	  43.109509	   0.000000;
	2	 0.0	 0.0	 3	   0.000000	  26.179857	   0.000000;
	2	 0.0	 0.0	 3	   0.000000	  46.555240	   0.000000;
	2	 0.0	 0.0	 3	   0.000000	  34.748857	   0.000000;
	2	 0.0	 0.0	 3	   0.000000	  29.848755	   0.000000;
	2	 0.0	 0.0	 3	   0.000000	  52.725852	   0.000000;
	2	 0.0	 0.0	 3	   0.000000	  48.343010	   0.000000;
	2	 0.0	 0.0	 3	   0.000000	  35.709057	   0.000000;
	2	 0.0	 0.0	 3	   0.000000	 174.092958	   0.000000;
	2	 0.0	 0.0	 3	   0.000000	  44.121776	   0.000000;
	2	 0.0	 0.0	 3	   0.000000	 130.800723	   0.000000;
	2	 0.0	 0.0	 3	   0.000000	 154.163988	   0.000000;
	2	 0.0	 0.0	 3	   0.000000	 135.410781	   0.000000;
	2	 0.0	 0.0	 3	   0.000000	 110.638760	   0.000000;
	2	 0.0	 0.0	 3	   0.000000	 150.641371	   0.000000;
	2	 0.0	 0.0	 3	   0.000000	 136.593421	   0.000000;
	2	 0.0	 0.0	 3	   0.000000	  40.672792	   0.000000;
	2	 0.0	 0.0	 3	   0.000000	 106.559126	   0.000000;
	2	 0.0	 0.0	 3	   0.000000	  44.228486	   0.000000;
	2	 0.0	 0.0	 3	   0.000000	 127.205732	   0.000000;
	2	 0.0	 0.0	 3	   0.000000	  47.913636	   0.000000;
	2	 0.0	 0.0	 3	   0.000000	  18.100960	   0.000000;
	2	 0.0	 0.0	 3	   0.000000	 141.314504	   0.000000;
	2	 0.0	 0.0	 3	   0.000000	 186.389197	   0.000000;
	2	 0.0	 0.0	 3	   0.000000	 133.676395	   0.000000;
	2	 0.0	 0.0	 3	   0.000000	  33.749923	   0.000000;
	2	 0.0	 0.0	 3	   0.000000	  34.793196	   0.000000;
	2	 0.0	 0.0	 3	   0.000000	  41.273486	   0.000000;
	2	 0.0	 0.0	 3	   0.000000	  37.871124	   0.000000;
	2	 0.0	 0.0	 3	   0.000000	  21.501802	   0.000000;
	2	 0.0	 0.0	 3	   0.000000	 120.422853	   0.000000;
	2	 0.0	 0.0	 3	   0.000000	 157.310853	   0.000000;
	2	 0.0	 0.0	 3	   0.000000	  22.674022	   0.000000;
	2	 0.0	 0.0	 3	   0.000000	 150.279742	   0.000000;
	2	 0.0	 0.0	 3	   0.000000	 110.387883	   0.000000;
	2	 0.0	 0.0	 3	   0.000000	 128.332358	   0.000000;
	2	 0.0	 0.0	 3	   0.000000	  36.111060	   0.000000;
	2	 0.0	 0.0	 3	   0.000000	  36.831719	   0.000000;
	2	 0.0	 0.0	 3	   0.000000	 165.929759	   0.000000;
	2	 0.0	 0.0	 3	   0.000000	  47.459920	   0.000000;
	2	 0.0	 0.0	 3	   0.000000	 141.915641	   0.000000;
	2	 0.0	 0.0	 3	   0.000000	  60.211460	   0.000000;
	2	 0.0	 0.0	 3	   0.000000	  41.060852	   0.000000;
	2	 0.0	 0.0	 3	   0.000000	 130.523187	   0.000000;
	2	 0.0	 0.0	 3	   0.000000	  42.240501	   0.000000;
	2	 0.0	 0.0	 3	   0.000000	  21.727656	   0.000000;
	2	 0.0	 0.0	 3	   0.000000	 111.338744	   0.000000;
	2	 0.0	 0.0	 3	   0.000000	  32.915580	   0.000000;
	2	 0.0	 0.0	 3	   0.000000	  32.965428	   0.000000;
	2	 0.0	 0.0	 3	   0.000000	  41.029128	   0.000000;
...
];

%% branch data
%	fbus	tbus	r	x	b	rateA	rateB	rateC	ratio	angle	status	angmin	angmax
mpc.branch = [
	4639	 1	 0.005726	 0.010482	 0.0	 2186.0	 2186.0	 2186.0	 0.0	 0.0	 1	 -19.138534	 19.138534;
	5234	 1	 0.01284	 0.025679	 0.0	 910.0	 910.0	 910.0	 0.0	 0.0	 1	 -19.138534	 19.138534;
	1676	 2	 0.005799	 0.010615	 0.0075	 2441.0	 2441.0	 2441.0	 0.0	 0.0	 1	 -19.138534	 19.138534;
	1667	 3	 0.134039	 0.309398	 0.0035	 91.0	 91.0	 91.0	 0.0	 0.0	 1	 -19.138534	 19.138534;
	2296	 3	 0.049131	 0.133283	 0.0015	 215.0	 215.0	 215.0	 0.0	 0.0	 1	 -19.138534	 19.138534;
	695	 4	 0.025926	 0.109136	 0.0002	 281.0	 281.0	 281.0	 0.0	 0.0	 1	 -19.138534	 19.138534;
	3931	 4	 0.05	 0.126914	 0.0006	 226.0	 226.0	 226.0	 0.0	 0.0	 1	 -19.138534	 19.138534;
	5036	 4	 0.02321	 0.097407	 0.0016	 315.0	 315.0	 315.0	 0.0	 0.0	 1	 -19.138534	 19.138534;
	4405	 5	 0.040564	 0.113631	 0.0013	 245.0	 245.0	 245.0	 0.0	 0.0	 1	 -19.138534	 19.138534;
	2772	 6	 0.006047	 0.020912	 0.0222	 1398.0	 1398.0	 1398.0	 0.0	 0.0	 1	 -19.138534	 19.138534;
	2773	 7	 0.012472	 0.032099	 0.0061	 884.0	 884.0	 884.0	 0.0	 0.0	 1	 -19.138534	 19.138534;
	2459	 8	 0.002607	 0.017462	 0.0324	 540.0	 540.0	 540.0	 0.0	 0.0	 1	 -19.138534	 19.138534;
	470	 9	 0.053893	 0.14258	 0.0017	 194.0	 194.0	 194.0	 0.0	 0.0	 1	 -19.138534	 19.138534;
	11	 10	 0.000247	 0.001235	 0.0005	 24078.0	 24078.0	 24078.0	 0.0	 0.0	 1	 -19.138534	 19.138534;
	11	 10	 0.000247	 0.001235	 0.0002	 24078.0	 24078.0	 24078.0	 0.0	 0.0	 1	 -19.138534	 19.138534;
	30	 11	 0.039753	 0.100988	 0.0047	 284.0	 284.0	 284.0	 0.0	 0.0	 1	 -19.138534	 19.138534;
	2922	 11	 0.037654	 0.096173	 0.001	 294.0	 294.0	 294.0	 0.0	 0.0	 1	 -19.138534	 19.138534;
	2174	 12	 0.014613	 0.060721	 0.0008	 487.0	 487.0	 487.0	 0.0	 0.0	 1	 -19.138534	 19.138534;
	4009	 12	 0.034064	 0.121139	 0.0015	 242.0	 242.0	 242.0	 0.0	 0.0	 1	 -19.138534	 19.138534;
	4011	 12	 0.000242	 0.000442	 0.0004	 60355.0	 60355.0	 60355.0	 0.0	 0.0	 1	 -19.138534	 19.138534;
	115	 13	 2.1e-05	 0.000125	 0.1386	 737.0	 737.0	 737.0	 0.0	 0.0	 1	 -19.138534	 19.138534;
	2330	 13	 0.000145	 0.001877	 0.0635	 2487.0	 2487.0	 2487.0	 0.0	 0.0	 1	 -19.138534	 19.138534;
	4569	 13	 0.000319	 0.003234	 0.0838	 1841.0	 1841.0	 1841.0	 0.0	 0.0	 1	 -19.138534	 19.138534;
	116	 13	 2.1e-05	 0.000125	 0.1386	 737.0	 737.0	 737.0	 0.0	 0.0	 1	 -19.138534	 19.138534;
	1220	 14	 0.04	 0.134198	 0.0274	 217.0	 217.0	 217.0	 0.0	 0.0	 1	 -19.138534	 19.138534;
	2867	 14	 0.012222	 0.052346	 0.0026	 565.0	 565.0	 565.0	 0.0	 0.0	 1	 -19.138534	 19.138534;
	4587	 14	 0.007284	 0.045432	 0.0024	 664.0	 664.0	 664.0	 0.0	 0.0	 1	 -19.138534	 19.138534;
	4945	 14	 0.059963	 0.154222	 0.0236	 184.0	 184.0	 184.0	 0.0	 0.0	 1	 -19.138534	 19.138534;
	5220	 14	 0.018025	 0.110988	 0.0073	 270.0	 270.0	 270.0	 0.0	 0.0	 1	 -19.138534	 19.138534;
	2867	 14	 0.012222	 0.052593	 0.0032	 562.0	 562.0	 562.0	 0.0	 0.0	 1	 -19.138534	 19.138534;
	4587	 14	 0.007284	 0.044938	 0.0024	 671.0	 671.0	 671.0	 0.0	 0.0	 1	 -19.138534	 19.138534;
	2899	 15	 0.037541	 0.100529	 0.0011	 284.0	 284.0	 284.0	 0.0	 0.0	 1	 -19.138534	 19.138534;
	4116	 15	 0.090199	 0.211388	 0.0023	 133.0	 133.0	 133.0	 0.0	 0.0	 1	 -19.138534	 19.138534;
	4447	 15	 0.09801	 0.267574	 0.0	 107.0	 107.0	 107.0	 0.0	 0.0	 1	 -19.138534	 19.138534;
	249	 16	 0.071806	 0.191484	 0.0019	 149.0	 149.0	 149.0	 0.0	 0.0	 1	 -19.138534	 19.138534;
	337	 16	 0.119174	 0.284958	 0.0044	 99.0	 99.0	 99.0	 0.0	 0.0	 1	 -19.138534	 19.138534;
	5824	 17	 0.022346	 0.061111	 0.0029	 457.0	 457.0	 457.0	 0.0	 0.0	 1	 -19.138534	 19.138534;
	3719	 18	 0.009383	 0.019753	 0.0	 1194.0	 1194.0	 1194.0	 0.0	 0.0	 1	 -19.138534	 19.138534;
	5084	 19	 0.000252	 0.000504	 0.0	 52398.0	 52398.0	 52398.0	 0.0	 0.0	 1	 -19.138534	 19.138534;
	3719	 20	 0.001975	 0.004444	 0.0	 5369.0	 5369.0	 5369.0	 0.0	 0.0	 1	 -19.138534	 19.138534;
	1349	 21	 0.036296	 0.099012	 0.0045	 282.0	 282.0	 282.0	 0.0	 0.0	 1	 -19.138534	 19.138534;
	1592	 21	 0.032716	 0.089136	 0.0057	 313.0	 313.0	 313.0	 0.0	 0.0	 1	 -19.138534	 19.138534;
	1837	 22	 0.138574	 0.351474	 0.0058	 81.0	 81.0	 81.0	 0.0	 0.0	 1	 -19.138534	 19.138534;
	5013	 22	 0.094407	 0.210456	 0.0044	 132.0	 132.0	 132.0	 0.0	 0.0	 1	 -19.138534	 19.138534;
	1152	 23	 0.047115	 0.117158	 0.001	 234.0	 234.0	 234.0	 0.0	 0.0	 1	 -19.138534	 19.138534;
	2696	 23	 0.039557	 0.120937	 0.0132	 233.0	 233.0	 233.0	 0.0	 0.0	 1	 -19.138534	 19.138534;
	3418	 23	 0.022676	 0.062484	 0.0007	 445.0	 445.0	 445.0	 0.0	 0.0	 1	 -19.138534	 19.138534;
	144	 24	 0.064568	 0.16716	 0.0113	 180.0	 180.0	 180.0	 0.0	 0.0	 1	 -19.138534	 19.138534;
	1277	 24	 0.048605	 0.128481	 0.0062	 235.0	 235.0	 235.0	 0.0	 0.0	 1	 -19.138534	 19.138534;
	490	 25	 0.004815	 0.02963	 0.0016	 1048.0	 1048.0	 1048.0	 0.0	 0.0	 1	 -19.138534	 19.138534;
	2086	 25	 0.007309	 0.04463	 0.0073	 710.0	 710.0	 710.0	 0.0	 0.0	 1	 -19.138534	 19.138534;
	612	 26	 0.034321	 0.145802	 0.0073	 199.0	 199.0	 199.0	 0.0	 0.0	 1	 -19.138534	 19.138534;
	1860	 26	 0.004815	 0.009753	 0.0005	 2731.0	 2731.0	 2731.0	 0.0	 0.0	 1	 -19.138534	 19.138534;
	2595	 26	 0.049012	 0.133704	 0.0063	 209.0	 209.0	 209.0	 0.0	 0.0	 1	 -19.138534	 19.138534;
	2915	 26	 0.04642	 0.126543	 0.0058	 221.0	 221.0	 221.0	 0.0	 0.0	 1	 -19.138534	 19.138534;
	3332	 26	 0.046296	 0.125926	 0.006	 222.0	 222.0	 222.0	 0.0	 0.0	 1	 -19.138534	 19.138534;
	4624	 26	 0.053704	 0.136753	 0.0065	 203.0	 203.0	 203.0	 0.0	 0.0	 1	 -19.138534	 19.138534;
	2915	 26	 0.03358	 0.120988	 0.0062	 237.0	 237.0	 237.0	 0.0	 0.0	 1	 -19.138534	 19.138534;
	536	 27	 0.006163	 0.041067	 0.0759	 446.0	 446.0	 446.0	 0.0	 0.0	 1	 -19.138534	 19.138534;
	2343	 27	 0.000652	 0.004369	 0.0081	 558.0	 558.0	 558.0	 0.0	 0.0	 1	 -19.138534	 19.138534;
	2677	 28	 0.050945	 0.131922	 0.0015	 216.0	 216.0	 216.0	 0.0	 0.0	 1	 -19.138534	 19.138534;
	3884	 28	 0.058781	 0.149005	 0.0017	 190.0	 190.0	 190.0	 0.0	 0.0	 1	 -19.138534	 19.138534;
	2880	 29	 0.067019	 0.137566	 0.0037	 193.0	 193.0	 193.0	 0.0	 0.0	 1	 -19.138534	 19.138534;
	3314	 29	 0.032754	 0.088939	 0.0039	 312.0	 312.0	 312.0	 0.0	 0.0	 1	 -19.138534	 19.138534;
	3314	 29	 0.030184	 0.080096	 0.0053	 345.0	 345.0	 345.0	 0.0	 0.0	 1	 -19.138534	 19.138534;
	144	 30	 0.066049	 0.187778	 0.0099	 161.0	 161.0	 161.0	 0.0	 0.0	 1	 -19.138534	 19.138534;
	1548	 30	 0.065062	 0.133704	 0.0062	 212.0	 212.0	 212.0	 0.0	 0.0	 1	 -19.138534	 19.138534;
	4831	 30	 0.041728	 0.106049	 0.005	 281.0	 281.0	 281.0	 0.0	 0.0	 1	 -19.138534	 19.138534;
	150	 31	 0.009574	 0.03875	 0.0114	 740.0	 740.0	 740.0	 0.0	 0.0	 1	 -19.138534	 19.138534;
	3155	 31	 0.000171	 0.000313	 0.0002	 82782.0	 82782.0	 82782.0	 0.0	 0.0	 1	 -19.138534	 19.138534;
	3684	 31	 0.034266	 0.09423	 0.001	 295.0	 295.0	 295.0	 0.0	 0.0	 1	 -19.138534	 19.138534;
	4733	 31	 0.006803	 0.028219	 0.0	 1018.0	 1018.0	 1018.0	 0.0	 0.0	 1	 -19.138534	 19.138534;
	150	 31	 0.008566	 0.037541	 0.0121	 767.0	 767.0	 767.0	 0.0	 0.0	 1	 -19.138534	 19.138534;
	3721	 32	 0.009733	 0.034089	 0.0185	 902.0	 902.0	 902.0	 0.0	 0.0	 1	 -19.138534	 19.138534;
	366	 34	 0.000277	 0.002015	 0.003	 288.0	 288.0	 288.0	 0.0	 0.0	 1	 -19.138534	 19.138534;
	1012	 33	 0.00881	 0.033995	 0.0607	 289.0	 289.0	 289.0	 0.0	 0.0	 1	 -19.138534	 19.138534;
	1153	 33	 0.004642	 0.019832	 0.0354	 255.0	 255.0	 255.0	 0.0	 0.0	 1	 -19.138534	 19.138534;
	2573	 34	 0.008861	 0.03506	 0.0623	 288.0	 288.0	 288.0	 0.0	 0.0	 1	 -19.138534	 19.138534;
	2697	 34	 0.006993	 0.032869	 0.0557	 255.0	 255.0	 255.0	 0.0	 0.0	 1	 -19.138534	 19.138534;
	4738	 33	 0.002173	 0.008731	 0.0152	 3441.0	 3441.0	 3441.0	 0.0	 0.0	 1	 -19.138534	 19.138534;
	4848	 34	 0.00077	 0.003121	 0.0051	 9629.0	 9629.0	 9629.0	 0.0	 0.0	 1	 -19.138534	 19.138534;
	5661	 33	 0.004109	 0.016138	 0.0284	 288.0	 288.0	 288.0	 0.0	 0.0	 1	 -19.138534	 19.138534;
	368	 35	 8.3e-05	 0.000907	 0.0202	 1034.0	 1034.0	 1034.0	 0.0	 0.0	 1	 -19.138534	 19.138534;
	1104	 35	 0.000552	 0.006726	 0.0939	 1786.0	 1786.0	 1786.0	 0.0	 0.0	 1	 -19.138534	 19.138534;
	2143	 35	 0.000512	 0.008012	 0.2455	 2462.0	 2462.0	 2462.0	 0.0	 0.0	 1	 -19.138534	 19.138534;
	3128	 35	 0.001107	 0.00918	 0.1906	 1644.0	 1644.0	 1644.0	 0.0	 0.0	 1	 -19.138534	 19.138534;
...